A50R-LD-4
                    3D
 Schrodinger Suite 2022-3.
 91 94  0  0  1  0            999 V2000
  -11.3773   13.1229   15.4533 O   0  0  0  0  0  0
   -6.6113   11.5024   14.7589 O   0  0  0  0  0  0
   -9.2351   11.0470   15.8510 O   0  0  0  0  0  0
  -13.0322   13.4971   13.9093 O   0  0  0  0  0  0
  -10.0328   16.1595   17.9648 O   0  0  0  0  0  0
   -3.9855   11.1885   16.6002 O   0  0  0  0  0  0
  -11.6987   10.3727   15.1912 O   0  0  0  0  0  0
  -14.6182    9.7110   14.6308 O   0  0  0  0  0  0
  -14.0432   14.8303   11.1908 O   0  0  0  0  0  0
  -15.6027   11.2642   12.4388 O   0  0  0  0  0  0
   -4.2182    9.7333   19.0139 O   0  0  0  0  0  0
   -4.9096   11.3256   21.4320 O   0  0  0  0  0  0
  -15.7738   14.6108    9.6622 O   0  0  0  0  0  0
  -12.3441   13.1676    9.4318 O   0  0  0  0  0  0
   -8.0085   12.5795   21.2503 O   0  0  0  0  0  0
  -13.8412   11.5012    7.5447 O   0  0  0  0  0  0
  -16.4853   12.2276    6.9092 O   0  0  0  0  0  0
  -18.1448   14.5252    6.8413 O   0  0  0  0  0  0
   -5.6899   13.6446   16.3720 N   0  3  0  0  0  0
   -9.5361   14.1893   16.6056 C   0  0  1  0  0  0
   -7.1906   13.2917   16.3073 C   0  0  1  0  0  0
   -9.9696   13.3688   15.3571 C   0  0  1  0  0  0
   -8.0354   14.5539   16.5247 C   0  0  0  0  0  0
   -7.5210   12.5752   14.9844 C   0  0  2  0  0  0
   -9.0263   12.1610   14.9970 C   0  0  1  0  0  0
   -4.9741   13.2004   17.6648 C   0  0  2  0  0  0
  -10.4273   15.4381   16.8111 C   0  0  0  0  0  0
  -12.0688   12.5748   14.3675 C   0  0  2  0  0  0
   -4.8487   11.6465   17.6375 C   0  0  2  0  0  0
  -12.7325   11.3100   14.9371 C   0  0  1  0  0  0
  -13.8313   10.7292   14.0090 C   0  0  2  0  0  0
  -13.8726   12.9730   12.8615 C   0  0  1  0  0  0
  -14.7400   11.8254   13.4223 C   0  0  1  0  0  0
   -4.4244   11.1333   19.0309 C   0  0  1  0  0  0
   -5.7457   13.6787   18.8950 C   0  0  0  0  0  0
   -5.4450   11.5161   20.1434 C   0  0  2  0  0  0
   -6.0021   12.9335   19.9885 C   0  0  0  0  0  0
  -14.7240   14.1067   12.2291 C   0  0  0  0  0  0
  -14.3718   14.5357    9.8502 C   0  0  2  0  0  0
  -13.7731   13.1556    9.4225 C   0  0  1  0  0  0
   -6.9042   13.4580   21.1014 C   0  0  0  0  0  0
  -14.3200   12.7497    8.0286 C   0  0  2  0  0  0
  -15.8606   12.8261    8.0469 C   0  0  1  0  0  0
  -16.2237   14.3055    8.3320 C   0  0  1  0  0  0
  -17.7335   14.6098    8.2007 C   0  0  0  0  0  0
   -9.6758   13.5335   17.4664 H   0  0  0  0  0  0
   -7.4157   12.6114   17.1289 H   0  0  0  0  0  0
   -9.8864   14.0346   14.5280 H   0  0  0  0  0  0
   -7.7203   15.1157   17.4032 H   0  0  0  0  0  0
   -7.8608   15.2633   15.7158 H   0  0  0  0  0  0
   -7.3456   13.2787   14.1734 H   0  0  0  0  0  0
   -9.2515   11.7992   13.9928 H   0  0  0  0  0  0
   -5.5625   14.6355   16.2281 H   0  0  0  0  0  0
   -3.9950   13.6751   17.6398 H   0  0  0  0  0  0
  -10.3807   16.0969   15.9417 H   0  0  0  0  0  0
  -11.4735   15.1494   16.9295 H   0  0  0  0  0  0
  -11.4198   12.3659   13.5125 H   0  0  0  0  0  0
   -5.8137   11.1883   17.4142 H   0  0  0  0  0  0
  -13.1865   11.5866   15.8919 H   0  0  0  0  0  0
  -13.3487   10.2469   13.1609 H   0  0  0  0  0  0
  -13.2345   12.5521   12.0857 H   0  0  0  0  0  0
  -15.3753   12.2201   14.2182 H   0  0  0  0  0  0
   -3.4590   11.5803   19.2790 H   0  0  0  0  0  0
   -6.9018   10.9850   14.0002 H   0  0  0  0  0  0
  -10.1680   10.7770   15.7238 H   0  0  0  0  0  0
   -6.1760   14.6673   18.8782 H   0  0  0  0  0  0
   -6.2843   10.8355   20.1161 H   0  0  0  0  0  0
  -15.6929   13.7381   11.8903 H   0  0  0  0  0  0
  -14.9739   14.8264   13.0093 H   0  0  0  0  0  0
  -10.6610   16.8776   18.1069 H   0  0  0  0  0  0
  -13.9735   15.3522    9.2425 H   0  0  0  0  0  0
   -4.5204   10.8729   15.8493 H   0  0  0  0  0  0
  -12.0490    9.6712   15.7720 H   0  0  0  0  0  0
  -14.1123   12.3972   10.1266 H   0  0  0  0  0  0
   -6.3408   13.4873   22.0349 H   0  0  0  0  0  0
   -7.2604   14.4715   20.9064 H   0  0  0  0  0  0
  -13.9323   13.4682    7.3030 H   0  0  0  0  0  0
  -14.0516    9.1659   15.1953 H   0  0  0  0  0  0
  -16.2272   12.2259    8.8838 H   0  0  0  0  0  0
  -15.7091   14.9648    7.6279 H   0  0  0  0  0  0
  -16.0100   10.4867   12.8477 H   0  0  0  0  0  0
   -3.8542    9.5326   18.1384 H   0  0  0  0  0  0
   -4.7842   10.3734   21.5444 H   0  0  0  0  0  0
  -18.3164   13.9194    8.8129 H   0  0  0  0  0  0
  -17.9457   15.6156    8.5666 H   0  0  0  0  0  0
  -12.0310   13.4992   10.2953 H   0  0  0  0  0  0
   -8.1821   12.4606   22.1996 H   0  0  0  0  0  0
  -14.4186   11.2537    6.8131 H   0  0  0  0  0  0
  -16.5674   11.2792    7.1138 H   0  0  0  0  0  0
  -17.8244   13.6638    6.5187 H   0  0  0  0  0  0
   -5.2331   13.1584   15.6114 H   0  0  0  0  0  0
  1 22  1  0  0  0
  1 28  1  0  0  0
  2 24  1  0  0  0
  2 64  1  0  0  0
  3 25  1  0  0  0
  3 65  1  0  0  0
  4 28  1  0  0  0
  4 32  1  0  0  0
  5 27  1  0  0  0
  5 70  1  0  0  0
  6 29  1  0  0  0
  6 72  1  0  0  0
  7 30  1  0  0  0
  7 73  1  0  0  0
  8 31  1  0  0  0
  8 78  1  0  0  0
  9 38  1  0  0  0
  9 39  1  0  0  0
 10 33  1  0  0  0
 10 81  1  0  0  0
 11 34  1  0  0  0
 11 82  1  0  0  0
 12 36  1  0  0  0
 12 83  1  0  0  0
 13 39  1  0  0  0
 13 44  1  0  0  0
 14 40  1  0  0  0
 14 86  1  0  0  0
 15 41  1  0  0  0
 15 87  1  0  0  0
 16 42  1  0  0  0
 16 88  1  0  0  0
 17 43  1  0  0  0
 17 89  1  0  0  0
 18 45  1  0  0  0
 18 90  1  0  0  0
 19 21  1  0  0  0
 19 26  1  0  0  0
 19 53  1  0  0  0
 19 91  1  0  0  0
 20 22  1  0  0  0
 20 23  1  0  0  0
 20 27  1  0  0  0
 20 46  1  0  0  0
 21 23  1  0  0  0
 21 24  1  0  0  0
 21 47  1  0  0  0
 22 25  1  0  0  0
 22 48  1  0  0  0
 23 49  1  0  0  0
 23 50  1  0  0  0
 24 25  1  0  0  0
 24 51  1  0  0  0
 25 52  1  0  0  0
 26 29  1  0  0  0
 26 35  1  0  0  0
 26 54  1  0  0  0
 27 55  1  0  0  0
 27 56  1  0  0  0
 28 30  1  0  0  0
 28 57  1  0  0  0
 29 34  1  0  0  0
 29 58  1  0  0  0
 30 31  1  0  0  0
 30 59  1  0  0  0
 31 33  1  0  0  0
 31 60  1  0  0  0
 32 33  1  0  0  0
 32 38  1  0  0  0
 32 61  1  0  0  0
 33 62  1  0  0  0
 34 36  1  0  0  0
 34 63  1  0  0  0
 35 37  2  0  0  0
 35 66  1  0  0  0
 36 37  1  0  0  0
 36 67  1  0  0  0
 37 41  1  0  0  0
 38 68  1  0  0  0
 38 69  1  0  0  0
 39 40  1  0  0  0
 39 71  1  0  0  0
 40 42  1  0  0  0
 40 74  1  0  0  0
 41 75  1  0  0  0
 41 76  1  0  0  0
 42 43  1  0  0  0
 42 77  1  0  0  0
 43 44  1  0  0  0
 43 79  1  0  0  0
 44 45  1  0  0  0
 44 80  1  0  0  0
 45 84  1  0  0  0
 45 85  1  0  0  0
M  CHG  1  19   1
M  END
> <s_m_entry_id>
4

> <s_m_entry_name>
PubChem_NatProd.8359

> <s_m_Source_Path>
E:\MonkeyPox\DockingAnalysis\Top5_Leads

> <s_m_Source_File>
Top5_Leads.mae

> <i_m_Source_File_Index>
4

> <s_m_job_name>
prime_mmgbsa_DNALigase

> <canvasUID>
8359

> <i_lp_mmshare_version>
59121

> <i_f3d_flags>
0

> <s_epik_input>
W09IXVtDSDJdQyg9W0NIXTEpW0NASF0oW09IXSlbQ0BASF0oW09IXSlbQ0BIXShbT0hdKVtDQEhdMVtOSF1bQ0BASF0oW0NIMl0yKVtDQEBIXShbT0hdKVtDQEBIXShbT0hdKVtDQEhdKFtDQEBIXTJbQ0gyXVtPSF0pT1tDQEBIXTNPW0NAQEhdKFtDQEBIXShbT0hdKVtDQEhdKFtPSF0pW0NASF0zW09IXSlbQ0gyXU9bQ0BASF00T1tDQEhdKFtDSDJdW09IXSlbQ0BASF0oW09IXSlbQ0BIXShbT0hdKVtDQEhdNFtPSF0=

> <s_epik_cmdline>
J2VwaWtfcHl0aG9uJywgJy1waCcsICc3LjQnLCAnLXRuJywgJzgnLCAnLW1hJywgJzUwMCcsICctaW1hZScsICc8aW5maWxlLm1hZT4nLCAnLW9tYWUnLCAnPG91dGZpbGUubWFlPic=

> <r_epik_Ionization_Penalty>
  0.1897

> <r_epik_Ionization_Penalty_Charging>
  0.1896

> <r_epik_Ionization_Penalty_Neutral>
  0.0001

> <r_epik_State_Penalty>
  0.1896

> <r_epik_Charging_Adjusted_Penalty>
0.379136

> <i_epik_Tot_Q>
1

> <i_epik_Tot_abs_Q>
1

> <s_lp_Force_Field>
S-OPLS

> <r_lp_Energy>
42.7816

> <b_lp_Chiralities_Consistent>
1

> <s_lp_Variant>
139588922-1

> <i_xglide_ligandID>
322437

> <s_i_glide_gridfile>
glide-grid_DNAligase

> <i_i_glide_lignum>
937

> <i_i_glide_rotatable_bonds>
24

> <r_i_docking_score>
-8.46933514515298

> <r_i_glide_ligand_efficiency>
-0.188207447670066

> <r_i_glide_ligand_efficiency_sa>
-0.669433809623386

> <r_i_glide_ligand_efficiency_ln>
-1.76199913415549

> <r_i_glide_gscore>
-8.65893514515298

> <r_i_glide_lipo>
-1.06811840598145

> <r_i_glide_hbond>
0

> <r_i_glide_metal>
0

> <r_i_glide_rewards>
0

> <r_i_glide_evdw>
-30.1855640411377

> <r_i_glide_ecoul>
-29.4727420806885

> <r_i_glide_erotb>
0.330913405435536

> <r_i_glide_esite>
-0.0759332173739302

> <r_i_glide_emodel>
-89.5811080932617

> <r_i_glide_energy>
-59.6583061218262

> <r_i_glide_einternal>
20.7850685119629

> <i_i_glide_confnum>
1

> <i_i_glide_posenum>
2

> <r_i_glide_eff_state_penalty>
0.1896

> <chiral flag>
1

> <ct enhanced stereo status>
0

> <Source Path>
/media/snu/HDD/MonkeyPox/LigandDataset

> <Source File>
PubChem NatProd.sdf

> <Source File Index>
8359

> <r_glide_XP_GScore>
-8.65893514515298

> <r_glide_XP_HBond>
-7.304821689665

> <r_glide_XP_PhobEn>
0

> <r_glide_XP_PhobEnHB>
0

> <r_glide_XP_LowMW>
0

> <r_glide_XP_RotPenal>
0.141820036536366

> <r_glide_XP_LipophilicEvdW>
-2.6069603691929

> <r_glide_XP_PhobEnPairHB>
0

> <r_glide_XP_Electro>
-2

> <r_glide_XP_Sitemap>
-0.0199475908508731

> <r_glide_XP_Penalties>
3

> <r_glide_XP_PiStack>
0

> <r_glide_XP_HBPenal>
0

> <r_glide_XP_ExposPenal>
0.130974468019431

> <r_glide_XP_PiCat>
0

> <r_glide_XP_ClBr>
0

> <r_glide_XP_Zpotr>
0

> <i_glide_XP_PoseRank>
1

> <i_psp_model_num>
0

> <r_psp_Prime_Coulomb>
-16064.0959495639

> <r_psp_Prime_Covalent>
2203.73690205503

> <r_psp_Prime_vdW>
-2597.7353511487

> <r_psp_Prime_Lipo>
-1312.6874152617

> <r_psp_Prime_Solv_GB>
-4771.8552937597

> <r_psp_Prime_Energy>
-22968.9208158249

> <s_psp_Prime_Energy_Force_Field>
S-OPLS

> <s_psp_Prime_Energy_Solvent_Model>
VSGB2.1

> <r_psp_Prime_Bond_Covalent>
237.899225364466

> <r_psp_Prime_Bond_SGB>
40325.4658061554

> <r_psp_Prime_Angle_Covalent>
1080.35764400285

> <r_psp_Prime_Angle_SGB>
-16882.2003575457

> <r_psp_Prime_Torsion_Covalent>
885.480032687714

> <r_psp_Prime_NB14_LJ>
2750.86534962679

> <r_psp_Prime_NB14_Lipo>
0

> <r_psp_Prime_NB14_Elec>
16753.7280902504

> <r_psp_Prime_NB14_SGB>
-13702.8420495537

> <r_psp_Prime_NBShort_LJ>
-5098.54146464215

> <r_psp_Prime_NBShort_Lipo>
-1312.6874152617

> <r_psp_Prime_NBShort_Elec>
-33902.1018064073

> <r_psp_Prime_NBShort_SGB>
15552.4854613959

> <r_psp_Prime_NBLong_LJ>
-250.05923613334

> <r_psp_Prime_NBLong_Lipo>
0

> <r_psp_Prime_NBLong_Elec>
1084.27776659304

> <r_psp_Prime_NBLong_SGB>
-1057.72375974508

> <r_psp_Prime_Self_SGB>
-29007.0403944665

> <r_psp_Prime_Hbond>
-310.362217066759

> <r_psp_Prime_Packing>
-32.8677409016543

> <r_psp_Prime_SelfCont>
-83.0537501775099

> <s_psp_Prime_MMGBSA_Input_Structure_Hash>
65af19af0a457e970d95af1d3665724c656d6e277a6fa84fb87dd858

> <i_psp_number_heavy_atoms>
45

> <s_psp_MMGBSA_moved_residues>


> <r_psp_MMGBSA_dG_Bind>
-60.8735393247334

> <r_psp_MMGBSA_dG_Bind_Coulomb>
-33.5825732639987

> <r_psp_MMGBSA_dG_Bind_Covalent>
6.80327030373519

> <r_psp_MMGBSA_dG_Bind_Hbond>
-8.06263081661319

> <r_psp_MMGBSA_dG_Bind_Lipo>
-17.1996024495209

> <r_psp_MMGBSA_dG_Bind_Packing>
0

> <r_psp_MMGBSA_dG_Bind_SelfCont>
0

> <r_psp_MMGBSA_dG_Bind_Solv_GB>
28.6584721557292

> <r_psp_MMGBSA_dG_Bind_vdW>
-37.490475254072

> <r_psp_Lig_Strain_Energy>
14.725184889735

> <r_psp_Lig_Strain_Coulomb>
4.84621299483297

> <r_psp_Lig_Strain_Covalent>
6.80327030373568

> <r_psp_Lig_Strain_Hbond>
0

> <r_psp_Lig_Strain_Lipo>
0.101027321031834

> <r_psp_Lig_Strain_Packing>
0

> <r_psp_Lig_Strain_SelfCont>
0

> <r_psp_Lig_Strain_Solv_GB>
-3.16604325596302

> <r_psp_Lig_Strain_vdW>
6.14071752609752

> <r_psp_Ligand_Energy>
194.643016174666

> <r_psp_Ligand_Coulomb>
193.680117898095

> <r_psp_Ligand_Covalent>
24.4049593159646

> <r_psp_Ligand_Hbond>
0

> <r_psp_Ligand_Lipo>
-5.97821255789406

> <r_psp_Ligand_Packing>
0

> <r_psp_Ligand_SelfCont>
0

> <r_psp_Ligand_Solv_GB>
-36.9548544980307

> <r_psp_Ligand_vdW>
19.4910060165315

> <r_psp_Complex_Energy>
-22968.9208158249

> <r_psp_Complex_Coulomb>
-16064.0959495639

> <r_psp_Complex_Covalent>
2203.73690205503

> <r_psp_Complex_Hbond>
-310.362217066759

> <r_psp_Complex_Lipo>
-1312.6874152617

> <r_psp_Complex_Packing>
-32.8677409016543

> <r_psp_Complex_SelfCont>
-83.0537501775099

> <r_psp_Complex_Solv_GB>
-4771.8552937597

> <r_psp_Complex_vdW>
-2597.7353511487

> <r_psp_Receptor_Energy>
-23102.6902926748

> <r_psp_Receptor_Coulomb>
-16224.193494198

> <r_psp_Receptor_Covalent>
2172.52867243533

> <r_psp_Receptor_Hbond>
-302.299586250146

> <r_psp_Receptor_Lipo>
-1289.50960025429

> <r_psp_Receptor_Packing>
-32.8677409016543

> <r_psp_Receptor_SelfCont>
-83.0537501775099

> <r_psp_Receptor_Solv_GB>
-4763.5589114174

> <r_psp_Receptor_vdW>
-2579.73588191116

> <r_psp_MMGBSA_dG_Bind(NS)>
-75.5987242144693

> <r_psp_MMGBSA_dG_Bind(NS)_Coulomb>
-38.4287862588317

> <r_psp_MMGBSA_dG_Bind(NS)_Covalent>
-4.54747350886464e-13

> <r_psp_MMGBSA_dG_Bind(NS)_Hbond>
-8.06263081661319

> <r_psp_MMGBSA_dG_Bind(NS)_Lipo>
-17.3006297705526

> <r_psp_MMGBSA_dG_Bind(NS)_Packing>
0

> <r_psp_MMGBSA_dG_Bind(NS)_SelfCont>
0

> <r_psp_MMGBSA_dG_Bind(NS)_Solv_GB>
31.8245154116921

> <r_psp_MMGBSA_dG_Bind(NS)_vdW>
-43.6311927801694

> <r_psp_Rec_Strain_Energy>
0

> <r_psp_Rec_Strain_Coulomb>
0

> <r_psp_Rec_Strain_Covalent>
0

> <r_psp_Rec_Strain_Hbond>
0

> <r_psp_Rec_Strain_Lipo>
0

> <r_psp_Rec_Strain_Packing>
0

> <r_psp_Rec_Strain_SelfCont>
0

> <r_psp_Rec_Strain_Solv_GB>
0

> <r_psp_Rec_Strain_vdW>
0

> <r_psp_Prime_MMGBSA_ligand_efficiency>
-1.35274531832741

> <r_psp_Prime_MMGBSA_ligand_efficiency_sa>
-2.02911797749111

> <r_psp_Prime_MMGBSA_ligand_efficiency_ln>
-12.6644089228828

> <PUBCHEM_COMPOUND_CID>
139588922

> <PUBCHEM_CONFORMER_RMSD>
1.4

> <PUBCHEM_CONFORMER_DIVERSEORDER>
1
23
20
22
27
18
26
19
10
24
17
5
2
9
14
16
15
8
7
11
12
21
13
4
25
6
28
3

> <PUBCHEM_MMFF94_PARTIAL_CHARGES>
59
1 -0.56
10 -0.68
11 -0.68
12 -0.68
13 -0.56
14 -0.68
15 -0.68
16 -0.68
17 -0.68
18 -0.68
19 -0.9
2 -0.68
21 0.27
22 0.28
24 0.28
25 0.28
26 0.41
27 0.28
28 0.56
29 0.28
3 -0.68
30 0.28
31 0.28
32 0.28
33 0.28
34 0.28
35 -0.29
36 0.42
37 -0.28
38 0.28
39 0.56
4 -0.56
40 0.28
41 0.42
42 0.28
43 0.28
44 0.28
45 0.28
5 -0.68
53 0.36
6 -0.68
64 0.4
65 0.4
66 0.15
7 -0.68
70 0.4
72 0.4
73 0.4
78 0.4
8 -0.68
81 0.4
82 0.4
83 0.4
86 0.4
87 0.4
88 0.4
89 0.4
9 -0.56
90 0.4

> <PUBCHEM_PHARMACOPHORE_FEATURES>
38
1 1 acceptor
1 10 acceptor
1 10 donor
1 11 acceptor
1 11 donor
1 12 acceptor
1 12 donor
1 13 acceptor
1 14 acceptor
1 14 donor
1 15 acceptor
1 15 donor
1 16 acceptor
1 16 donor
1 17 acceptor
1 17 donor
1 18 acceptor
1 18 donor
1 19 cation
1 19 donor
1 2 acceptor
1 2 donor
1 3 acceptor
1 3 donor
1 4 acceptor
1 5 acceptor
1 5 donor
1 6 acceptor
1 6 donor
1 7 acceptor
1 7 donor
1 8 acceptor
1 8 donor
1 9 acceptor
6 13 39 40 42 43 44 rings
6 20 21 22 23 24 25 rings
6 26 29 34 35 36 37 rings
6 4 28 30 31 32 33 rings

> <PUBCHEM_HEAVY_ATOM_COUNT>
45

> <PUBCHEM_ATOM_DEF_STEREO_COUNT>
19

> <PUBCHEM_ATOM_UDEF_STEREO_COUNT>
0

> <PUBCHEM_BOND_DEF_STEREO_COUNT>
0

> <PUBCHEM_BOND_UDEF_STEREO_COUNT>
0

> <PUBCHEM_ISOTOPIC_ATOM_COUNT>
0

> <PUBCHEM_COMPONENT_COUNT>
1

> <PUBCHEM_CACTVS_TAUTO_COUNT>
-1

> <PUBCHEM_CONFORMER_ID>
0851F53A00000001

> <PUBCHEM_MMFF94_ENERGY>
114.898

> <PUBCHEM_FEATURE_SELFOVERLAP>
193.074

> <PUBCHEM_SHAPE_FINGERPRINT>
10319688 140 18338797931090048548
10622 236 18272651238131719776
11409948 41 18125987498932200567
117089 54 18411141328861704006
12124843 1 17896329004687559886
12202916 173 18042394915438119696
12977781 61 17825967075900256563
13560911 43 18410292480775257482
14068700 675 18202285754082186218
14340393 91 18409163278075214833
15183329 4 17559406953773622329
15351339 4 17968939678785898042
15467298 65 17840291543737049687
15538507 32 18410294739506412718
16067689 302 18191871348023499651
19301676 85 18335989696361998171
19311894 1 18121212078439212696
19315092 285 17918277546026757680
19841028 212 18343301470456086266
20775438 99 18193261121445050978
208703 8 18343022147463771478
21133410 171 17462536457446311498
21781055 127 17346329172880919187
23569914 152 17906696295561833557
255183 451 18413111645784328380
3534868 343 18264215879318991900
44344687 77 18259994794788051987
57527295 17 17896320221173075184
70251023 43 18410292493670579248
9831232 110 18408880758919953279

> <PUBCHEM_SHAPE_MULTIPOLES>
815.45
26.18
7.33
1.63
24.05
4.07
-0.66
-28.88
11.59
-15.18
0.36
0.46
-0.67
0.28

> <PUBCHEM_SHAPE_SELFOVERLAP>
1689.5

> <PUBCHEM_COORDINATE_TYPE>
2
5
10

> <PUBCHEM_SHAPE_VOLUME>
456.4

> <s_epik_Chemistry_Notes>
This compound contains an acetal/aminal-like group ( X-CH(R)-Y where X, Y are N, S, or O) that may be acid/base labile, releasing an aldehyde.

> <PUBCHEM_EFFECTIVE_ROTOR_COUNT>
14.4

> <s_m_subgroup_title>
Top5_Leads->prime_mmgbsa_DNALigase-out2

> <s_m_subgroupid>
Top5_Leads->prime_mmgbsa_DNALigase-out21

> <b_m_subgroup_collapsed>
0

$$$$
