A50R-LD-2
                    3D
 Schrodinger Suite 2022-3.
 45 46  0  0  1  0            999 V2000
   -6.6558   13.3995   16.1028 N   0  0  0  0  0  0
   -6.0352   12.6553   15.1334 C   0  0  0  0  0  0
   -6.3065   13.4868   17.4253 C   0  0  0  0  0  0
   -5.3284   12.4212   17.8629 C   0  0  0  0  0  0
   -5.1344   11.7753   15.5850 N   0  0  0  0  0  0
   -4.7680   11.5843   16.8996 C   0  0  0  0  0  0
   -7.8732   14.1572   15.6723 C   0  0  0  0  0  0
   -9.1717   13.5254   16.2131 C   0  0  0  0  0  0
  -14.2317   10.3024   13.8329 C   0  0  0  0  0  0
  -10.1968   14.3504   16.4867 N   0  0  0  0  0  0
  -11.5139   13.8173   18.6534 C   0  0  0  0  0  0
   -6.1756   12.7569   13.9291 O   0  0  0  0  0  0
   -6.7441   14.3612   18.1772 O   0  0  0  0  0  0
  -11.5143   13.9779   17.0705 C   0  0  2  0  0  0
  -14.7156   10.8680   12.8702 O   0  0  0  0  0  0
   -9.2263   12.3067   16.3661 O   0  0  0  0  0  0
  -10.4341   13.9880   19.2678 O   0  0  0  0  0  0
  -13.0802   10.5803   14.4192 N   0  0  0  0  0  0
  -14.8209    9.2956   14.4105 N   0  0  0  0  0  0
  -12.6302   13.5657   19.1645 O   0  5  0  0  0  0
   -4.9820   12.2727   19.2101 C   0  0  0  0  0  0
   -3.8900   10.5721   17.2577 C   0  0  0  0  0  0
  -12.2163   12.7885   16.3357 C   0  0  0  0  0  0
  -12.1454   11.6284   14.0139 C   0  0  0  0  0  0
  -12.3361   12.9401   14.7965 C   0  0  0  0  0  0
   -4.1157   11.2442   19.5759 C   0  0  0  0  0  0
   -3.5705   10.4029   18.6002 C   0  0  0  0  0  0
   -4.7908   11.1633   14.8505 H   0  0  0  0  0  0
   -8.0074   14.0711   14.5983 H   0  0  0  0  0  0
   -7.7883   15.2224   15.8909 H   0  0  0  0  0  0
  -10.0663   15.3378   16.3283 H   0  0  0  0  0  0
  -12.1610   14.8420   16.9041 H   0  0  0  0  0  0
  -12.8248   10.0035   15.2044 H   0  0  0  0  0  0
  -14.4048    8.8680   15.2203 H   0  0  0  0  0  0
  -15.7113    9.0211   14.0391 H   0  0  0  0  0  0
   -5.4030   12.9185   19.9700 H   0  0  0  0  0  0
   -3.4723    9.9148   16.5081 H   0  0  0  0  0  0
  -13.2237   12.6408   16.7282 H   0  0  0  0  0  0
  -11.6896   11.8637   16.5764 H   0  0  0  0  0  0
  -11.1457   11.2408   14.2219 H   0  0  0  0  0  0
  -12.1825   11.8168   12.9376 H   0  0  0  0  0  0
  -11.6026   13.6520   14.4210 H   0  0  0  0  0  0
  -13.3022   13.3799   14.5450 H   0  0  0  0  0  0
   -3.8878   11.1001   20.6187 H   0  0  0  0  0  0
   -2.9021    9.6036   18.8557 H   0  0  0  0  0  0
  1  2  1  0  0  0
  1  3  1  0  0  0
  1  7  1  0  0  0
  2  5  1  0  0  0
  2 12  2  0  0  0
  3  4  1  0  0  0
  3 13  2  0  0  0
  4  6  2  0  0  0
  4 21  1  0  0  0
  5  6  1  0  0  0
  5 28  1  0  0  0
  6 22  1  0  0  0
  7  8  1  0  0  0
  7 29  1  0  0  0
  7 30  1  0  0  0
  8 10  1  0  0  0
  8 16  2  0  0  0
  9 18  1  0  0  0
  9 15  2  0  0  0
  9 19  1  0  0  0
 10 14  1  0  0  0
 10 31  1  0  0  0
 11 14  1  0  0  0
 11 17  2  0  0  0
 11 20  1  0  0  0
 14 23  1  0  0  0
 14 32  1  0  0  0
 18 24  1  0  0  0
 18 33  1  0  0  0
 19 34  1  0  0  0
 19 35  1  0  0  0
 21 26  2  0  0  0
 21 36  1  0  0  0
 22 27  2  0  0  0
 22 37  1  0  0  0
 23 25  1  0  0  0
 23 38  1  0  0  0
 23 39  1  0  0  0
 24 25  1  0  0  0
 24 40  1  0  0  0
 24 41  1  0  0  0
 25 42  1  0  0  0
 25 43  1  0  0  0
 26 27  1  0  0  0
 26 44  1  0  0  0
 27 45  1  0  0  0
M  CHG  1  20  -1
M  END
> <s_m_entry_id>
2

> <s_m_entry_name>
ChemDiv_AntiviralLibrary.45257

> <s_m_Source_Path>
E:\MonkeyPox\DockingAnalysis\Top5_Leads

> <s_m_Source_File>
Top5_Leads.mae

> <i_m_Source_File_Index>
2

> <s_m_job_name>
prime_mmgbsa_DNALigase

> <IDNUMBER>
Y040-8624

> <canvasUID>
45257

> <i_lp_mmshare_version>
59121

> <i_f3d_flags>
0

> <s_epik_input>
W2NIXTFbY0hdW2NIXVtjSF1jKGMxMilbbkhdYyg9TyluKGMyPU8pW0NIMl1DKD1PKVtOSF1bQ0BIXShDKD1PKVtPSF0pW0NIMl1bQ0gyXVtDSDJdW05IXUMoPU8pW05IMl0=

> <s_epik_cmdline>
J2VwaWtfcHl0aG9uJywgJy1waCcsICc3LjQnLCAnLXRuJywgJzgnLCAnLW1hJywgJzUwMCcsICctaW1hZScsICc8aW5maWxlLm1hZT4nLCAnLW9tYWUnLCAnPG91dGZpbGUubWFlPic=

> <r_epik_Ionization_Penalty>
  0.0245

> <r_epik_Ionization_Penalty_Charging>
  0.0245

> <r_epik_Ionization_Penalty_Neutral>
  0.0000

> <r_epik_State_Penalty>
  0.0244

> <r_epik_Charging_Adjusted_Penalty>
0.0489397

> <i_epik_Tot_Q>
-1

> <i_epik_Tot_abs_Q>
1

> <s_lp_Force_Field>
S-OPLS

> <r_lp_Energy>
34.8156

> <b_lp_Chiralities_Consistent>
1

> <s_lp_Variant>
ligprep_ChemDiv_AntiviralLibrary.sdf:38894-1

> <i_xglide_ligandID>
81951

> <s_i_glide_gridfile>
glide-grid_DNAligase

> <i_i_glide_lignum>
2504

> <i_i_glide_rotatable_bonds>
10

> <r_i_docking_score>
-8.61380797771474

> <r_i_glide_ligand_efficiency>
-0.319029925100546

> <r_i_glide_ligand_efficiency_sa>
-0.957089774250167

> <r_i_glide_ligand_efficiency_ln>
-2.00515248748882

> <r_i_glide_gscore>
-8.63820797771474

> <r_i_glide_lipo>
-1.41648657079687

> <r_i_glide_hbond>
-0.844092492002385

> <r_i_glide_metal>
0

> <r_i_glide_rewards>
-1.090972610854

> <r_i_glide_evdw>
-33.8756980895996

> <r_i_glide_ecoul>
-17.3374576568604

> <r_i_glide_erotb>
0.956661699968047

> <r_i_glide_esite>
-0.363390232572806

> <r_i_glide_emodel>
-68.909202263219

> <r_i_glide_energy>
-51.21315574646

> <r_i_glide_einternal>
4.60521984100342

> <i_i_glide_confnum>
1

> <i_i_glide_posenum>
16

> <r_i_glide_eff_state_penalty>
0.0244

> <chiral flag>
1

> <ct enhanced stereo status>
0

> <Source Path>
/media/snu/HDD/MonkeyPox/LigandDataset

> <Source File>
ChemDiv AntiviralLibrary.sdf

> <Source File Index>
45257

> <available>
49

> <H_acceptor>
11

> <H_donor>
6

> <B_rotN>
10

> <N_O>
11

> <logP>
-1.4925

> <logD>
-5.1525

> <logSw>
-2.2237

> <PSA>
138.486

> <Name>
5-(CARBAMOYLAMINO)-2-[2-(2,4-DIOXO-1,2,3,4-TETRAHYDROQUINAZOLIN-3-YL)ACETAMIDO]PENTANOIC ACID

> <Smile>
N1(C(Nc2c(C1=O)cccc2)=O)CC(N[C@H](C(=O)O)CCCNC(=O)N)=O

> <Collection>
DC

> <InChI>
InChI=1S/C16H19N5O6/c17-15(26)18-7-3-6-11(14(24)25)19-12(22)8-21-13(23)9-4-1-2-5-10(9)20-16(21)27/h1-2,4-5,11H,3,6-8H2,(H,19,22)(H,20,27)(H,24,25)(H3,17,18,26)/t11-/m0/s1

> <InChI Key>
RVUBUJKUMMZDGJ-NSHDSACASA-N

> <PERCENTSP3>
31.3

> <Link>
https://www.chemdiv.com/catalog/screening-compounds/compound-Y040-8624/

> <r_glide_XP_GScore>
-8.63820797771474

> <r_glide_XP_HBond>
-2.95922816186298

> <r_glide_XP_PhobEn>
0

> <r_glide_XP_PhobEnHB>
-1.5

> <r_glide_XP_LowMW>
-0.245519933333333

> <r_glide_XP_RotPenal>
0.409997887706729

> <r_glide_XP_LipophilicEvdW>
-2.84467444508736

> <r_glide_XP_PhobEnPairHB>
0

> <r_glide_XP_Electro>
-1.30030932426453

> <r_glide_XP_Sitemap>
-0.222541183604651

> <r_glide_XP_Penalties>
2.46033619547719e-05

> <r_glide_XP_PiStack>
0

> <r_glide_XP_HBPenal>
0

> <r_glide_XP_ExposPenal>
0.0240425793694317

> <r_glide_XP_PiCat>
0

> <r_glide_XP_ClBr>
0

> <r_glide_XP_Zpotr>
0

> <i_glide_XP_PoseRank>
1

> <i_psp_model_num>
0

> <r_psp_Prime_Coulomb>
-16460.6191966339

> <r_psp_Prime_Covalent>
2193.35733796004

> <r_psp_Prime_vdW>
-2588.46803562539

> <r_psp_Prime_Lipo>
-1301.86772756417

> <r_psp_Prime_Solv_GB>
-4765.17999287687

> <r_psp_Prime_Energy>
-23346.8033210695

> <s_psp_Prime_Energy_Force_Field>
S-OPLS

> <s_psp_Prime_Energy_Solvent_Model>
VSGB2.1

> <r_psp_Prime_Bond_Covalent>
235.853251052276

> <r_psp_Prime_Bond_SGB>
40375.4719117776

> <r_psp_Prime_Angle_Covalent>
1072.23289079936

> <r_psp_Prime_Angle_SGB>
-17386.9211395071

> <r_psp_Prime_Torsion_Covalent>
885.271196108401

> <r_psp_Prime_NB14_LJ>
2756.00795324348

> <r_psp_Prime_NB14_Lipo>
0

> <r_psp_Prime_NB14_Elec>
16087.2053423753

> <r_psp_Prime_NB14_SGB>
-13268.3718709545

> <r_psp_Prime_NBShort_LJ>
-5094.65418531431

> <r_psp_Prime_NBShort_Lipo>
-1301.86772756417

> <r_psp_Prime_NBShort_Elec>
-33639.0890342156

> <r_psp_Prime_NBShort_SGB>
15472.4309850445

> <r_psp_Prime_NBLong_LJ>
-249.821803554561

> <r_psp_Prime_NBLong_Lipo>
0

> <r_psp_Prime_NBLong_Elec>
1091.26449520638

> <r_psp_Prime_NBLong_SGB>
-1067.19366279923

> <r_psp_Prime_Self_SGB>
-28890.5962164381

> <r_psp_Prime_Hbond>
-307.635181785799

> <r_psp_Prime_Packing>
-33.3367743659082

> <r_psp_Prime_SelfCont>
-83.0537501775099

> <s_psp_Prime_MMGBSA_Input_Structure_Hash>
c7962405c2b83a958fdc14cc766fb9edbcf1851d61ebd979e0f253b3

> <i_psp_number_heavy_atoms>
27

> <s_psp_MMGBSA_moved_residues>


> <r_psp_MMGBSA_dG_Bind>
-44.0070882812724

> <r_psp_MMGBSA_dG_Bind_Coulomb>
-34.1376090401609

> <r_psp_MMGBSA_dG_Bind_Covalent>
4.64783842744919

> <r_psp_MMGBSA_dG_Bind_Hbond>
-5.33559553565289

> <r_psp_MMGBSA_dG_Bind_Lipo>
-11.7847946658439

> <r_psp_MMGBSA_dG_Bind_Packing>
-0.46903346425399

> <r_psp_MMGBSA_dG_Bind_SelfCont>
0

> <r_psp_MMGBSA_dG_Bind_Solv_GB>
42.3363207041311

> <r_psp_MMGBSA_dG_Bind_vdW>
-39.2642147069514

> <r_psp_Lig_Strain_Energy>
6.78813132414732

> <r_psp_Lig_Strain_Coulomb>
-2.02318399466859

> <r_psp_Lig_Strain_Covalent>
4.64783842745

> <r_psp_Lig_Strain_Hbond>
0

> <r_psp_Lig_Strain_Lipo>
-0.0811010644315525

> <r_psp_Lig_Strain_Packing>
0

> <r_psp_Lig_Strain_SelfCont>
0

> <r_psp_Lig_Strain_Solv_GB>
2.49961834199104

> <r_psp_Lig_Strain_vdW>
1.74495961380631

> <r_psp_Ligand_Energy>
-200.105940113383

> <r_psp_Ligand_Coulomb>
-202.28809339572

> <r_psp_Ligand_Covalent>
16.1808270972609

> <r_psp_Ligand_Hbond>
0

> <r_psp_Ligand_Lipo>
-0.57333264404073

> <r_psp_Ligand_Packing>
0

> <r_psp_Ligand_SelfCont>
0

> <r_psp_Ligand_Solv_GB>
-43.9574021636051

> <r_psp_Ligand_vdW>
30.5320609927222

> <r_psp_Complex_Energy>
-23346.8033210695

> <r_psp_Complex_Coulomb>
-16460.6191966339

> <r_psp_Complex_Covalent>
2193.35733796004

> <r_psp_Complex_Hbond>
-307.635181785799

> <r_psp_Complex_Lipo>
-1301.86772756417

> <r_psp_Complex_Packing>
-33.3367743659082

> <r_psp_Complex_SelfCont>
-83.0537501775099

> <r_psp_Complex_Solv_GB>
-4765.17999287687

> <r_psp_Complex_vdW>
-2588.46803562539

> <r_psp_Receptor_Energy>
-23102.6902926748

> <r_psp_Receptor_Coulomb>
-16224.193494198

> <r_psp_Receptor_Covalent>
2172.52867243533

> <r_psp_Receptor_Hbond>
-302.299586250146

> <r_psp_Receptor_Lipo>
-1289.50960025429

> <r_psp_Receptor_Packing>
-32.8677409016543

> <r_psp_Receptor_SelfCont>
-83.0537501775099

> <r_psp_Receptor_Solv_GB>
-4763.5589114174

> <r_psp_Receptor_vdW>
-2579.73588191116

> <r_psp_MMGBSA_dG_Bind(NS)>
-50.7952196054175

> <r_psp_MMGBSA_dG_Bind(NS)_Coulomb>
-32.1144250454927

> <r_psp_MMGBSA_dG_Bind(NS)_Covalent>
-4.54747350886464e-13

> <r_psp_MMGBSA_dG_Bind(NS)_Hbond>
-5.33559553565289

> <r_psp_MMGBSA_dG_Bind(NS)_Lipo>
-11.7036936014124

> <r_psp_MMGBSA_dG_Bind(NS)_Packing>
-0.46903346425399

> <r_psp_MMGBSA_dG_Bind(NS)_SelfCont>
0

> <r_psp_MMGBSA_dG_Bind(NS)_Solv_GB>
39.8367023621395

> <r_psp_MMGBSA_dG_Bind(NS)_vdW>
-41.0091743207577

> <r_psp_Rec_Strain_Energy>
0

> <r_psp_Rec_Strain_Coulomb>
0

> <r_psp_Rec_Strain_Covalent>
0

> <r_psp_Rec_Strain_Hbond>
0

> <r_psp_Rec_Strain_Lipo>
0

> <r_psp_Rec_Strain_Packing>
0

> <r_psp_Rec_Strain_SelfCont>
0

> <r_psp_Rec_Strain_Solv_GB>
0

> <r_psp_Rec_Strain_vdW>
0

> <r_psp_Prime_MMGBSA_ligand_efficiency>
-1.62989215856565

> <r_psp_Prime_MMGBSA_ligand_efficiency_sa>
-2.44483823784847

> <r_psp_Prime_MMGBSA_ligand_efficiency_ln>
-10.2441246383279

> <pKa_ma>
3.7402

> <pKa_mb>
6.1193

> <N_Chirals>
1

> <Color>
NOT COLORED

> <STEREO>
ABSOLUTE

> <State>
Solid

> <s_m_subgroup_title>
Top5_Leads->prime_mmgbsa_DNALigase-out2

> <s_m_subgroupid>
Top5_Leads->prime_mmgbsa_DNALigase-out21

> <b_m_subgroup_collapsed>
0

$$$$
