F13L-LD-1
                    3D
 Schrodinger Suite 2022-3.
 91 94  0  0  1  0            999 V2000
    6.7332    0.4693    7.7172 O   0  0  0  0  0  0
   11.6995    0.7694    7.2393 O   0  0  0  0  0  0
    8.9981    0.3089    6.1440 O   0  0  0  0  0  0
    6.5079    2.5095    8.7150 O   0  0  0  0  0  0
    7.1775   -3.5245    9.2634 O   0  0  0  0  0  0
   12.1959   -3.7061    6.2010 O   0  0  0  0  0  0
    5.0222    1.3258    5.5725 O   0  0  0  0  0  0
    3.7676    4.0082    5.9666 O   0  0  0  0  0  0
    7.8845    4.1527   10.7350 O   0  0  0  0  0  0
    5.0155    5.7443    7.7173 O   0  0  0  0  0  0
   10.3580   -5.8221    6.4823 O   0  0  0  0  0  0
   10.2024   -7.1574    9.1296 O   0  0  0  0  0  0
    7.4002    2.8653   12.6132 O   0  0  0  0  0  0
    9.8788    2.5436   10.0034 O   0  0  0  0  0  0
   11.0173   -6.8972   11.6994 O   0  0  0  0  0  0
   10.8118    0.5055   11.9986 O   0  0  0  0  0  0
    8.8534   -0.3483   13.8833 O   0  0  0  0  0  0
    7.3965    2.5394   15.5866 O   0  0  0  0  0  0
   12.0265   -1.8418    8.6539 N   0  3  0  0  0  0
    8.1483   -1.4508    8.4079 C   0  0  1  0  0  0
   10.6760   -1.3217    8.0909 C   0  0  1  0  0  0
    8.0162    0.1014    8.2858 C   0  0  1  0  0  0
    9.5288   -1.7914    9.0110 C   0  0  0  0  0  0
   10.6421    0.2122    8.0128 C   0  0  2  0  0  0
    9.2346    0.6772    7.4925 C   0  0  1  0  0  0
   12.3014   -3.3741    8.6340 C   0  0  2  0  0  0
    7.0127   -2.1153    9.2061 C   0  0  0  0  0  0
    6.5125    1.8399    7.4842 C   0  0  2  0  0  0
   11.5646   -4.0270    7.4300 C   0  0  2  0  0  0
    5.1503    2.0558    6.7884 C   0  0  1  0  0  0
    4.9688    3.5936    6.6171 C   0  0  2  0  0  0
    6.5118    3.9388    8.6087 C   0  0  1  0  0  0
    5.1641    4.3502    7.9519 C   0  0  1  0  0  0
   11.1846   -5.5029    7.5971 C   0  0  1  0  0  0
   11.9254   -4.0063    9.9720 C   0  0  0  0  0  0
   10.4374   -5.7608    8.9392 C   0  0  2  0  0  0
   11.1152   -5.0771   10.1411 C   0  0  0  0  0  0
    6.7269    4.5877   10.0053 C   0  0  0  0  0  0
    7.8905    2.8596   11.3026 C   0  0  2  0  0  0
    9.3616    2.4318   11.3192 C   0  0  1  0  0  0
   10.7132   -5.5273   11.5459 C   0  0  0  0  0  0
    9.4830    1.0179   11.9470 C   0  0  2  0  0  0
    8.8216    0.9763   13.3427 C   0  0  1  0  0  0
    7.3974    1.5869   13.2773 C   0  0  1  0  0  0
    6.7122    1.7009   14.6628 C   0  0  0  0  0  0
    8.1068   -1.8599    7.3961 H   0  0  0  0  0  0
   10.5943   -1.6167    7.0450 H   0  0  0  0  0  0
    8.0382    0.5290    9.2847 H   0  0  0  0  0  0
    9.5946   -2.8643    9.1650 H   0  0  0  0  0  0
    9.6373   -1.4149   10.0282 H   0  0  0  0  0  0
   10.7995    0.5949    9.0168 H   0  0  0  0  0  0
    9.2611    1.7659    7.5257 H   0  0  0  0  0  0
   12.1194   -1.5136    9.6044 H   0  0  0  0  0  0
   13.3832   -3.4622    8.5196 H   0  0  0  0  0  0
    7.0219   -1.7495   10.2292 H   0  0  0  0  0  0
    6.0436   -1.8737    8.7649 H   0  0  0  0  0  0
    7.3071    2.2599    6.8631 H   0  0  0  0  0  0
   10.5724   -3.6056    7.3409 H   0  0  0  0  0  0
    4.3574    1.6814    7.4242 H   0  0  0  0  0  0
    5.7629    3.9426    5.9546 H   0  0  0  0  0  0
    7.3402    4.2601    7.9727 H   0  0  0  0  0  0
    4.3474    4.0650    8.6181 H   0  0  0  0  0  0
   12.0681   -6.1221    7.5642 H   0  0  0  0  0  0
   12.5265    0.3104    7.4502 H   0  0  0  0  0  0
    8.0703    0.4561    5.9281 H   0  0  0  0  0  0
   12.3420   -3.5543   10.8617 H   0  0  0  0  0  0
    9.4623   -5.2835    8.9003 H   0  0  0  0  0  0
    6.8573    5.6604    9.8586 H   0  0  0  0  0  0
    5.8375    4.5074   10.6101 H   0  0  0  0  0  0
    6.3431   -3.9173    9.5516 H   0  0  0  0  0  0
    7.2557    2.1550   10.7798 H   0  0  0  0  0  0
   11.8266   -4.2960    5.5301 H   0  0  0  0  0  0
    4.9854    0.3844    5.7839 H   0  0  0  0  0  0
    9.9108    3.1445   11.9367 H   0  0  0  0  0  0
   11.1927   -4.9398   12.3311 H   0  0  0  0  0  0
    9.6333   -5.4058   11.6500 H   0  0  0  0  0  0
    8.9401    0.3259   11.3059 H   0  0  0  0  0  0
    2.9920    3.6741    6.4557 H   0  0  0  0  0  0
    9.4188    1.5919   14.0191 H   0  0  0  0  0  0
    6.7745    0.9225   12.6862 H   0  0  0  0  0  0
    4.4122    5.7844    6.9573 H   0  0  0  0  0  0
   10.4021   -6.7629    6.2418 H   0  0  0  0  0  0
    9.7887   -7.4999    8.3244 H   0  0  0  0  0  0
    5.7010    2.0791   14.5393 H   0  0  0  0  0  0
    6.6073    0.7091   15.1063 H   0  0  0  0  0  0
    9.6783    3.4365    9.6984 H   0  0  0  0  0  0
   10.6431   -7.3214   10.9052 H   0  0  0  0  0  0
   10.8382   -0.1218   12.7337 H   0  0  0  0  0  0
    8.3586   -0.9483   13.3150 H   0  0  0  0  0  0
    6.9784    2.4146   16.4499 H   0  0  0  0  0  0
   12.7678   -1.3772    8.1464 H   0  0  0  0  0  0
  1 22  1  0  0  0
  1 28  1  0  0  0
  2 24  1  0  0  0
  2 64  1  0  0  0
  3 25  1  0  0  0
  3 65  1  0  0  0
  4 28  1  0  0  0
  4 32  1  0  0  0
  5 27  1  0  0  0
  5 70  1  0  0  0
  6 29  1  0  0  0
  6 72  1  0  0  0
  7 30  1  0  0  0
  7 73  1  0  0  0
  8 31  1  0  0  0
  8 78  1  0  0  0
  9 38  1  0  0  0
  9 39  1  0  0  0
 10 33  1  0  0  0
 10 81  1  0  0  0
 11 34  1  0  0  0
 11 82  1  0  0  0
 12 36  1  0  0  0
 12 83  1  0  0  0
 13 39  1  0  0  0
 13 44  1  0  0  0
 14 40  1  0  0  0
 14 86  1  0  0  0
 15 41  1  0  0  0
 15 87  1  0  0  0
 16 42  1  0  0  0
 16 88  1  0  0  0
 17 43  1  0  0  0
 17 89  1  0  0  0
 18 45  1  0  0  0
 18 90  1  0  0  0
 19 21  1  0  0  0
 19 26  1  0  0  0
 19 53  1  0  0  0
 19 91  1  0  0  0
 20 22  1  0  0  0
 20 23  1  0  0  0
 20 27  1  0  0  0
 20 46  1  0  0  0
 21 23  1  0  0  0
 21 24  1  0  0  0
 21 47  1  0  0  0
 22 25  1  0  0  0
 22 48  1  0  0  0
 23 49  1  0  0  0
 23 50  1  0  0  0
 24 25  1  0  0  0
 24 51  1  0  0  0
 25 52  1  0  0  0
 26 29  1  0  0  0
 26 35  1  0  0  0
 26 54  1  0  0  0
 27 55  1  0  0  0
 27 56  1  0  0  0
 28 30  1  0  0  0
 28 57  1  0  0  0
 29 34  1  0  0  0
 29 58  1  0  0  0
 30 31  1  0  0  0
 30 59  1  0  0  0
 31 33  1  0  0  0
 31 60  1  0  0  0
 32 33  1  0  0  0
 32 38  1  0  0  0
 32 61  1  0  0  0
 33 62  1  0  0  0
 34 36  1  0  0  0
 34 63  1  0  0  0
 35 37  2  0  0  0
 35 66  1  0  0  0
 36 37  1  0  0  0
 36 67  1  0  0  0
 37 41  1  0  0  0
 38 68  1  0  0  0
 38 69  1  0  0  0
 39 40  1  0  0  0
 39 71  1  0  0  0
 40 42  1  0  0  0
 40 74  1  0  0  0
 41 75  1  0  0  0
 41 76  1  0  0  0
 42 43  1  0  0  0
 42 77  1  0  0  0
 43 44  1  0  0  0
 43 79  1  0  0  0
 44 45  1  0  0  0
 44 80  1  0  0  0
 45 84  1  0  0  0
 45 85  1  0  0  0
M  CHG  1  19   1
M  END
> <s_m_entry_id>
7

> <s_m_entry_name>
PubChem_NatProd.8359

> <s_m_Source_Path>
E:\MonkeyPox\DockingAnalysis\Top5_Leads

> <s_m_Source_File>
Top5_Leads.mae

> <i_m_Source_File_Index>
7

> <s_m_job_name>
prime_mmgbsa_F13

> <canvasUID>
8359

> <i_lp_mmshare_version>
59121

> <i_f3d_flags>
0

> <s_epik_input>
W09IXVtDSDJdQyg9W0NIXTEpW0NASF0oW09IXSlbQ0BASF0oW09IXSlbQ0BIXShbT0hdKVtDQEhdMVtOSF1bQ0BASF0oW0NIMl0yKVtDQEBIXShbT0hdKVtDQEBIXShbT0hdKVtDQEhdKFtDQEBIXTJbQ0gyXVtPSF0pT1tDQEBIXTNPW0NAQEhdKFtDQEBIXShbT0hdKVtDQEhdKFtPSF0pW0NASF0zW09IXSlbQ0gyXU9bQ0BASF00T1tDQEhdKFtDSDJdW09IXSlbQ0BASF0oW09IXSlbQ0BIXShbT0hdKVtDQEhdNFtPSF0=

> <s_epik_cmdline>
J2VwaWtfcHl0aG9uJywgJy1waCcsICc3LjQnLCAnLXRuJywgJzgnLCAnLW1hJywgJzUwMCcsICctaW1hZScsICc8aW5maWxlLm1hZT4nLCAnLW9tYWUnLCAnPG91dGZpbGUubWFlPic=

> <r_epik_Ionization_Penalty>
  0.1897

> <r_epik_Ionization_Penalty_Charging>
  0.1896

> <r_epik_Ionization_Penalty_Neutral>
  0.0001

> <r_epik_State_Penalty>
  0.1896

> <r_epik_Charging_Adjusted_Penalty>
0.379136

> <i_epik_Tot_Q>
1

> <i_epik_Tot_abs_Q>
1

> <s_lp_Force_Field>
S-OPLS

> <r_lp_Energy>
42.7816

> <b_lp_Chiralities_Consistent>
1

> <s_lp_Variant>
139588922-1

> <i_xglide_ligandID>
322437

> <s_i_glide_gridfile>
glide-grid_F13

> <i_i_glide_lignum>
841

> <i_i_glide_rotatable_bonds>
24

> <r_i_docking_score>
-10.764431649144

> <r_i_glide_ligand_efficiency>
-0.2392095922032

> <r_i_glide_ligand_efficiency_sa>
-0.850842995797736

> <r_i_glide_ligand_efficiency_ln>
-2.23948148472109

> <r_i_glide_gscore>
-10.954031649144

> <r_i_glide_lipo>
-1.92147388751843

> <r_i_glide_hbond>
0

> <r_i_glide_metal>
0

> <r_i_glide_rewards>
-0.0163836753929749

> <r_i_glide_evdw>
-31.3940410614014

> <r_i_glide_ecoul>
-24.0485057830811

> <r_i_glide_erotb>
0.330913405435536

> <r_i_glide_esite>
0

> <r_i_glide_emodel>
-80.0643096860095

> <r_i_glide_energy>
-55.4425468444824

> <r_i_glide_einternal>
0

> <i_i_glide_confnum>
1

> <i_i_glide_posenum>
4

> <r_i_glide_eff_state_penalty>
0.1896

> <chiral flag>
1

> <ct enhanced stereo status>
0

> <Source Path>
/media/snu/HDD/MonkeyPox/LigandDataset

> <Source File>
PubChem NatProd.sdf

> <Source File Index>
8359

> <r_glide_XP_GScore>
-10.954031649144

> <r_glide_XP_HBond>
-6.44652254443217

> <r_glide_XP_PhobEn>
0

> <r_glide_XP_PhobEnHB>
0

> <r_glide_XP_LowMW>
0

> <r_glide_XP_RotPenal>
0.141820036536366

> <r_glide_XP_LipophilicEvdW>
-2.6601639114925

> <r_glide_XP_PhobEnPairHB>
0

> <r_glide_XP_Electro>
-1.80363793373108

> <r_glide_XP_Sitemap>
-0.216526275094402

> <r_glide_XP_Penalties>
0

> <r_glide_XP_PiStack>
0

> <r_glide_XP_HBPenal>
0

> <r_glide_XP_ExposPenal>
0.0309989790697872

> <r_glide_XP_PiCat>
0

> <r_glide_XP_ClBr>
0

> <r_glide_XP_Zpotr>
0

> <i_glide_XP_PoseRank>
1

> <i_psp_model_num>
0

> <r_psp_Prime_Coulomb>
-11265.439494342

> <r_psp_Prime_Covalent>
1620.37855524429

> <r_psp_Prime_vdW>
-1752.57989910855

> <r_psp_Prime_Lipo>
-923.824647561892

> <r_psp_Prime_Solv_GB>
-2017.77439919909

> <r_psp_Prime_Energy>
-14634.9661087928

> <s_psp_Prime_Energy_Force_Field>
S-OPLS

> <s_psp_Prime_Energy_Solvent_Model>
VSGB2.1

> <r_psp_Prime_Bond_Covalent>
154.650468276409

> <r_psp_Prime_Bond_SGB>
24861.834455921

> <r_psp_Prime_Angle_Covalent>
748.362718777291

> <r_psp_Prime_Angle_SGB>
-10020.4459618899

> <r_psp_Prime_Torsion_Covalent>
717.365368190588

> <r_psp_Prime_NB14_LJ>
1830.2313447273

> <r_psp_Prime_NB14_Lipo>
0

> <r_psp_Prime_NB14_Elec>
11313.0732475353

> <r_psp_Prime_NB14_SGB>
-8804.62014147232

> <r_psp_Prime_NBShort_LJ>
-3398.94771111307

> <r_psp_Prime_NBShort_Lipo>
-923.824647561892

> <r_psp_Prime_NBShort_Elec>
-23118.9775932903

> <r_psp_Prime_NBShort_SGB>
10247.5006503657

> <r_psp_Prime_NBLong_LJ>
-183.863532722779

> <r_psp_Prime_NBLong_Lipo>
0

> <r_psp_Prime_NBLong_Elec>
540.464851412951

> <r_psp_Prime_NBLong_SGB>
-456.184601374626

> <r_psp_Prime_Self_SGB>
-17845.8588007489

> <r_psp_Prime_Hbond>
-221.031427629828

> <r_psp_Prime_Packing>
-30.1969951907733

> <r_psp_Prime_SelfCont>
-44.4978010049576

> <s_psp_Prime_MMGBSA_Input_Structure_Hash>
4f483352c70e751683cc124e7fe6bbd118cc7fbaaca087758e983491

> <i_psp_number_heavy_atoms>
45

> <s_psp_MMGBSA_moved_residues>


> <r_psp_MMGBSA_dG_Bind>
-21.226464544241

> <r_psp_MMGBSA_dG_Bind_Coulomb>
-38.4211159369788

> <r_psp_MMGBSA_dG_Bind_Covalent>
13.2647789095502

> <r_psp_MMGBSA_dG_Bind_Hbond>
-7.41462169137282

> <r_psp_MMGBSA_dG_Bind_Lipo>
-13.5269575728604

> <r_psp_MMGBSA_dG_Bind_Packing>
0

> <r_psp_MMGBSA_dG_Bind_SelfCont>
0

> <r_psp_MMGBSA_dG_Bind_Solv_GB>
57.9153447961103

> <r_psp_MMGBSA_dG_Bind_vdW>
-33.0438930486878

> <r_psp_Lig_Strain_Energy>
27.5894852826216

> <r_psp_Lig_Strain_Coulomb>
6.64302473336193

> <r_psp_Lig_Strain_Covalent>
13.2647789095514

> <r_psp_Lig_Strain_Hbond>
0

> <r_psp_Lig_Strain_Lipo>
0.525705309337411

> <r_psp_Lig_Strain_Packing>
0

> <r_psp_Lig_Strain_SelfCont>
0

> <r_psp_Lig_Strain_Solv_GB>
-2.08579129282589

> <r_psp_Lig_Strain_vdW>
9.24176762319676

> <r_psp_Ligand_Energy>
184.141102865821

> <r_psp_Ligand_Coulomb>
203.391147055574

> <r_psp_Ligand_Covalent>
15.9499425467322

> <r_psp_Ligand_Hbond>
0

> <r_psp_Ligand_Lipo>
-8.78614965886055

> <r_psp_Ligand_Packing>
0

> <r_psp_Ligand_SelfCont>
0

> <r_psp_Ligand_Solv_GB>
-41.7526370950031

> <r_psp_Ligand_vdW>
15.3388000173785

> <r_psp_Complex_Energy>
-14634.9661087928

> <r_psp_Complex_Coulomb>
-11265.439494342

> <r_psp_Complex_Covalent>
1620.37855524429

> <r_psp_Complex_Hbond>
-221.031427629828

> <r_psp_Complex_Lipo>
-923.824647561892

> <r_psp_Complex_Packing>
-30.1969951907733

> <r_psp_Complex_SelfCont>
-44.4978010049576

> <r_psp_Complex_Solv_GB>
-2017.77439919909

> <r_psp_Complex_vdW>
-1752.57989910855

> <r_psp_Receptor_Energy>
-14797.8807471144

> <r_psp_Receptor_Coulomb>
-11430.4095254606

> <r_psp_Receptor_Covalent>
1591.163833788

> <r_psp_Receptor_Hbond>
-213.616805938455

> <r_psp_Receptor_Lipo>
-901.511540330171

> <r_psp_Receptor_Packing>
-30.1969951907733

> <r_psp_Receptor_SelfCont>
-44.4978010049576

> <r_psp_Receptor_Solv_GB>
-2033.93710690019

> <r_psp_Receptor_vdW>
-1734.87480607724

> <r_psp_MMGBSA_dG_Bind(NS)>
-48.8159498268633

> <r_psp_MMGBSA_dG_Bind(NS)_Coulomb>
-45.0641406703398

> <r_psp_MMGBSA_dG_Bind(NS)_Covalent>
-1.36424205265939e-12

> <r_psp_MMGBSA_dG_Bind(NS)_Hbond>
-7.41462169137282

> <r_psp_MMGBSA_dG_Bind(NS)_Lipo>
-14.0526628821979

> <r_psp_MMGBSA_dG_Bind(NS)_Packing>
0

> <r_psp_MMGBSA_dG_Bind(NS)_SelfCont>
0

> <r_psp_MMGBSA_dG_Bind(NS)_Solv_GB>
60.0011360889362

> <r_psp_MMGBSA_dG_Bind(NS)_vdW>
-42.2856606718847

> <r_psp_Rec_Strain_Energy>
0

> <r_psp_Rec_Strain_Coulomb>
0

> <r_psp_Rec_Strain_Covalent>
0

> <r_psp_Rec_Strain_Hbond>
0

> <r_psp_Rec_Strain_Lipo>
0

> <r_psp_Rec_Strain_Packing>
0

> <r_psp_Rec_Strain_SelfCont>
0

> <r_psp_Rec_Strain_Solv_GB>
0

> <r_psp_Rec_Strain_vdW>
0

> <r_psp_Prime_MMGBSA_ligand_efficiency>
-0.471699212094245

> <r_psp_Prime_MMGBSA_ligand_efficiency_sa>
-0.707548818141367

> <r_psp_Prime_MMGBSA_ligand_efficiency_ln>
-4.41605055262686

> <PUBCHEM_COMPOUND_CID>
139588922

> <PUBCHEM_CONFORMER_RMSD>
1.4

> <PUBCHEM_CONFORMER_DIVERSEORDER>
1
23
20
22
27
18
26
19
10
24
17
5
2
9
14
16
15
8
7
11
12
21
13
4
25
6
28
3

> <PUBCHEM_MMFF94_PARTIAL_CHARGES>
59
1 -0.56
10 -0.68
11 -0.68
12 -0.68
13 -0.56
14 -0.68
15 -0.68
16 -0.68
17 -0.68
18 -0.68
19 -0.9
2 -0.68
21 0.27
22 0.28
24 0.28
25 0.28
26 0.41
27 0.28
28 0.56
29 0.28
3 -0.68
30 0.28
31 0.28
32 0.28
33 0.28
34 0.28
35 -0.29
36 0.42
37 -0.28
38 0.28
39 0.56
4 -0.56
40 0.28
41 0.42
42 0.28
43 0.28
44 0.28
45 0.28
5 -0.68
53 0.36
6 -0.68
64 0.4
65 0.4
66 0.15
7 -0.68
70 0.4
72 0.4
73 0.4
78 0.4
8 -0.68
81 0.4
82 0.4
83 0.4
86 0.4
87 0.4
88 0.4
89 0.4
9 -0.56
90 0.4

> <PUBCHEM_PHARMACOPHORE_FEATURES>
38
1 1 acceptor
1 10 acceptor
1 10 donor
1 11 acceptor
1 11 donor
1 12 acceptor
1 12 donor
1 13 acceptor
1 14 acceptor
1 14 donor
1 15 acceptor
1 15 donor
1 16 acceptor
1 16 donor
1 17 acceptor
1 17 donor
1 18 acceptor
1 18 donor
1 19 cation
1 19 donor
1 2 acceptor
1 2 donor
1 3 acceptor
1 3 donor
1 4 acceptor
1 5 acceptor
1 5 donor
1 6 acceptor
1 6 donor
1 7 acceptor
1 7 donor
1 8 acceptor
1 8 donor
1 9 acceptor
6 13 39 40 42 43 44 rings
6 20 21 22 23 24 25 rings
6 26 29 34 35 36 37 rings
6 4 28 30 31 32 33 rings

> <PUBCHEM_HEAVY_ATOM_COUNT>
45

> <PUBCHEM_ATOM_DEF_STEREO_COUNT>
19

> <PUBCHEM_ATOM_UDEF_STEREO_COUNT>
0

> <PUBCHEM_BOND_DEF_STEREO_COUNT>
0

> <PUBCHEM_BOND_UDEF_STEREO_COUNT>
0

> <PUBCHEM_ISOTOPIC_ATOM_COUNT>
0

> <PUBCHEM_COMPONENT_COUNT>
1

> <PUBCHEM_CACTVS_TAUTO_COUNT>
-1

> <PUBCHEM_CONFORMER_ID>
0851F53A00000001

> <PUBCHEM_MMFF94_ENERGY>
114.898

> <PUBCHEM_FEATURE_SELFOVERLAP>
193.074

> <PUBCHEM_SHAPE_FINGERPRINT>
10319688 140 18338797931090048548
10622 236 18272651238131719776
11409948 41 18125987498932200567
117089 54 18411141328861704006
12124843 1 17896329004687559886
12202916 173 18042394915438119696
12977781 61 17825967075900256563
13560911 43 18410292480775257482
14068700 675 18202285754082186218
14340393 91 18409163278075214833
15183329 4 17559406953773622329
15351339 4 17968939678785898042
15467298 65 17840291543737049687
15538507 32 18410294739506412718
16067689 302 18191871348023499651
19301676 85 18335989696361998171
19311894 1 18121212078439212696
19315092 285 17918277546026757680
19841028 212 18343301470456086266
20775438 99 18193261121445050978
208703 8 18343022147463771478
21133410 171 17462536457446311498
21781055 127 17346329172880919187
23569914 152 17906696295561833557
255183 451 18413111645784328380
3534868 343 18264215879318991900
44344687 77 18259994794788051987
57527295 17 17896320221173075184
70251023 43 18410292493670579248
9831232 110 18408880758919953279

> <PUBCHEM_SHAPE_MULTIPOLES>
815.45
26.18
7.33
1.63
24.05
4.07
-0.66
-28.88
11.59
-15.18
0.36
0.46
-0.67
0.28

> <PUBCHEM_SHAPE_SELFOVERLAP>
1689.5

> <PUBCHEM_COORDINATE_TYPE>
2
5
10

> <PUBCHEM_SHAPE_VOLUME>
456.4

> <s_epik_Chemistry_Notes>
This compound contains an acetal/aminal-like group ( X-CH(R)-Y where X, Y are N, S, or O) that may be acid/base labile, releasing an aldehyde.

> <PUBCHEM_EFFECTIVE_ROTOR_COUNT>
14.4

> <s_m_subgroup_title>
Top5_Leads->prime_mmgbsa_F13-out2

> <s_m_subgroupid>
Top5_Leads->prime_mmgbsa_F13-out21

> <b_m_subgroup_collapsed>
0

$$$$
