F13L-LD-3
                    3D
 Schrodinger Suite 2022-3.
 60 61  0  0  1  0            999 V2000
    6.8130    3.3389    6.5256 O   0  0  0  0  0  0
    9.9869   -2.0073    9.2620 O   0  0  0  0  0  0
   12.5136   -1.4378    6.6178 O   0  0  0  0  0  0
    9.5103   -0.9286    6.2207 O   0  0  0  0  0  0
    6.2545    5.2577    5.6118 O   0  0  0  0  0  0
    5.4613    7.3822    7.3242 O   0  0  0  0  0  0
    9.8439   -4.6358    7.7834 O   0  0  0  0  0  0
    8.9780    0.5220    7.8499 N   0  0  0  0  0  0
   13.3907   -2.5435    9.3938 N   0  3  0  0  0  0
   11.2351   -6.2686    7.2312 N   0  0  0  0  0  0
    7.8821    1.2096    7.1176 C   0  0  2  0  0  0
    7.7303    2.7337    7.4548 C   0  0  2  0  0  0
    6.5271    0.4716    7.3094 C   0  0  0  0  0  0
    7.2852    3.0024    8.9190 C   0  0  0  0  0  0
    6.3718   -0.9551    6.7515 C   0  0  0  0  0  0
    6.8764    4.4544    9.1290 C   0  0  0  0  0  0
   10.7134   -1.2596    8.2806 C   0  0  2  0  0  0
    9.6922   -0.5169    7.3620 C   0  0  0  0  0  0
    6.4597   -0.9758    5.2339 C   0  0  0  0  0  0
    5.0218   -1.5287    7.1788 C   0  0  0  0  0  0
    6.4510    5.2452    8.0366 C   0  0  0  0  0  0
   11.6923   -2.1991    7.4784 C   0  0  2  0  0  0
    6.5090    4.6604    6.6558 C   0  0  0  0  0  0
   12.6053   -3.2224    8.2588 C   0  0  2  0  0  0
    6.8518    4.9924   10.4164 C   0  0  0  0  0  0
    5.9949    6.5595    8.2815 C   0  0  0  0  0  0
   11.9734   -4.5295    8.8178 C   0  0  0  0  0  0
    6.4168    6.2915   10.6364 C   0  0  0  0  0  0
    6.0204    7.0804    9.5691 C   0  0  0  0  0  0
   10.9389   -5.1659    7.8975 C   0  0  0  0  0  0
    8.1210    1.1949    6.0505 H   0  0  0  0  0  0
    8.7025    3.2064    7.3027 H   0  0  0  0  0  0
    6.3346    0.4043    8.3710 H   0  0  0  0  0  0
    5.7173    1.0796    6.9020 H   0  0  0  0  0  0
    8.0679    2.7084    9.6186 H   0  0  0  0  0  0
    6.4043    2.4131    9.1659 H   0  0  0  0  0  0
    7.1440   -1.6048    7.1630 H   0  0  0  0  0  0
    9.1121    0.7503    8.8208 H   0  0  0  0  0  0
   11.2884   -0.5020    8.8141 H   0  0  0  0  0  0
   11.1080   -2.7799    6.7722 H   0  0  0  0  0  0
    5.7038   -0.3006    4.8369 H   0  0  0  0  0  0
    7.4278   -0.6477    4.8621 H   0  0  0  0  0  0
    6.2777   -1.9773    4.8412 H   0  0  0  0  0  0
    4.1846   -0.9578    6.7737 H   0  0  0  0  0  0
    4.9002   -2.5621    6.8504 H   0  0  0  0  0  0
    4.9465   -1.5004    8.2627 H   0  0  0  0  0  0
   13.4142   -3.5322    7.5961 H   0  0  0  0  0  0
    7.1344    4.3818   11.2626 H   0  0  0  0  0  0
   12.7484   -5.2547    9.0690 H   0  0  0  0  0  0
   11.4451   -4.3307    9.7522 H   0  0  0  0  0  0
    6.3503    6.6807   11.6356 H   0  0  0  0  0  0
    5.6932    8.0923    9.7549 H   0  0  0  0  0  0
    9.6333   -2.8020    8.8330 H   0  0  0  0  0  0
   12.7561   -2.2343   10.1159 H   0  0  0  0  0  0
   14.0538   -3.1891    9.7968 H   0  0  0  0  0  0
   13.1213   -0.8924    7.1520 H   0  0  0  0  0  0
    5.0006    8.1254    7.7386 H   0  0  0  0  0  0
   10.5257   -6.7007    6.6483 H   0  0  0  0  0  0
   12.1856   -6.6098    7.1757 H   0  0  0  0  0  0
   13.8912   -1.7409    9.0355 H   0  0  0  0  0  0
  1 12  1  0  0  0
  1 23  1  0  0  0
  2 17  1  0  0  0
  2 53  1  0  0  0
  3 22  1  0  0  0
  3 56  1  0  0  0
  4 18  2  0  0  0
  5 23  2  0  0  0
  6 26  1  0  0  0
  6 57  1  0  0  0
  7 30  2  0  0  0
  8 11  1  0  0  0
  8 18  1  0  0  0
  8 38  1  0  0  0
  9 24  1  0  0  0
  9 54  1  0  0  0
  9 55  1  0  0  0
  9 60  1  0  0  0
 10 30  1  0  0  0
 10 58  1  0  0  0
 10 59  1  0  0  0
 11 12  1  0  0  0
 11 13  1  0  0  0
 11 31  1  0  0  0
 12 14  1  0  0  0
 12 32  1  0  0  0
 13 15  1  0  0  0
 13 33  1  0  0  0
 13 34  1  0  0  0
 14 16  1  0  0  0
 14 35  1  0  0  0
 14 36  1  0  0  0
 15 19  1  0  0  0
 15 20  1  0  0  0
 15 37  1  0  0  0
 16 21  2  0  0  0
 16 25  1  0  0  0
 17 18  1  0  0  0
 17 22  1  0  0  0
 17 39  1  0  0  0
 19 41  1  0  0  0
 19 42  1  0  0  0
 19 43  1  0  0  0
 20 44  1  0  0  0
 20 45  1  0  0  0
 20 46  1  0  0  0
 21 23  1  0  0  0
 21 26  1  0  0  0
 22 24  1  0  0  0
 22 40  1  0  0  0
 24 27  1  0  0  0
 24 47  1  0  0  0
 25 28  2  0  0  0
 25 48  1  0  0  0
 26 29  2  0  0  0
 27 30  1  0  0  0
 27 49  1  0  0  0
 27 50  1  0  0  0
 28 29  1  0  0  0
 28 51  1  0  0  0
 29 52  1  0  0  0
M  CHG  1   9   1
M  END
> <s_m_entry_id>
9

> <s_m_entry_name>
PubChem_NatProd.3179

> <s_m_Source_Path>
E:\MonkeyPox\DockingAnalysis\Top5_Leads

> <s_m_Source_File>
Top5_Leads.mae

> <i_m_Source_File_Index>
9

> <s_m_job_name>
prime_mmgbsa_F13

> <canvasUID>
3179

> <i_lp_mmshare_version>
59121

> <i_f3d_flags>
0

> <s_epik_input>
W2NIXTFbY0hdW2NIXWMoW09IXSljKGMxMilDKD1PKU9bQ0BASF0oW0NIMl0yKVtDQEhdKFtDSDJdW0NIXShbQ0gzXSlbQ0gzXSlbTkhdQyg9TylbQ0BASF0oW09IXSlbQ0BASF0oW09IXSlbQ0BASF0oW05IMl0pW0NIMl1DKD1PKVtOSDJd

> <s_epik_cmdline>
J2VwaWtfcHl0aG9uJywgJy1waCcsICc3LjQnLCAnLXRuJywgJzgnLCAnLW1hJywgJzUwMCcsICctaW1hZScsICc8aW5maWxlLm1hZT4nLCAnLW9tYWUnLCAnPG91dGZpbGUubWFlPic=

> <r_epik_Ionization_Penalty>
  0.0742

> <r_epik_Ionization_Penalty_Charging>
  0.0695

> <r_epik_Ionization_Penalty_Neutral>
  0.0047

> <r_epik_State_Penalty>
  0.0698

> <r_epik_Charging_Adjusted_Penalty>
0.139309

> <i_epik_Tot_Q>
1

> <i_epik_Tot_abs_Q>
1

> <s_lp_Force_Field>
S-OPLS

> <r_lp_Energy>
19.1134

> <b_lp_Chiralities_Consistent>
1

> <s_lp_Variant>
25223631-1

> <i_xglide_ligandID>
320440

> <s_i_glide_gridfile>
glide-grid_F13

> <i_i_glide_lignum>
138

> <i_i_glide_rotatable_bonds>
13

> <r_i_docking_score>
-9.30518509536877

> <r_i_glide_ligand_efficiency>
-0.310172836512292

> <r_i_glide_ligand_efficiency_sa>
-0.963779118982239

> <r_i_glide_ligand_efficiency_ln>
-2.11423944177995

> <r_i_glide_gscore>
-9.37498509536877

> <r_i_glide_lipo>
-1.83052202556016

> <r_i_glide_hbond>
-0.691377572493759

> <r_i_glide_metal>
0

> <r_i_glide_rewards>
-0.584072690882682

> <r_i_glide_evdw>
-28.1007633209229

> <r_i_glide_ecoul>
-24.065990447998

> <r_i_glide_erotb>
0.880424128298755

> <r_i_glide_esite>
-0.157983800637253

> <r_i_glide_emodel>
-78.9480427469875

> <r_i_glide_energy>
-52.1667537689209

> <r_i_glide_einternal>
8.96308040618896

> <i_i_glide_confnum>
1

> <i_i_glide_posenum>
3

> <r_i_glide_eff_state_penalty>
0.0698

> <chiral flag>
1

> <ct enhanced stereo status>
0

> <Source Path>
/media/snu/HDD/MonkeyPox/LigandDataset

> <Source File>
PubChem NatProd.sdf

> <Source File Index>
3179

> <r_glide_XP_GScore>
-9.37498509536877

> <r_glide_XP_HBond>
-4.73119959235305

> <r_glide_XP_PhobEn>
0

> <r_glide_XP_PhobEnHB>
0

> <r_glide_XP_LowMW>
-0.0851063333333328

> <r_glide_XP_RotPenal>
0.377324641407286

> <r_glide_XP_LipophilicEvdW>
-2.72500609283936

> <r_glide_XP_PhobEnPairHB>
0

> <r_glide_XP_Electro>
-1.80494928359985

> <r_glide_XP_Sitemap>
-0.406205909821676

> <r_glide_XP_Penalties>
0.000157475171210051

> <r_glide_XP_PiStack>
0

> <r_glide_XP_HBPenal>
0

> <r_glide_XP_ExposPenal>
0

> <r_glide_XP_PiCat>
0

> <r_glide_XP_ClBr>
0

> <r_glide_XP_Zpotr>
0

> <i_glide_XP_PoseRank>
1

> <i_psp_model_num>
0

> <r_psp_Prime_Coulomb>
-11491.0815169324

> <r_psp_Prime_Covalent>
1610.77137426907

> <r_psp_Prime_vdW>
-1750.66407909737

> <r_psp_Prime_Lipo>
-917.76461263746

> <r_psp_Prime_Solv_GB>
-2031.33972530791

> <r_psp_Prime_Energy>
-14874.9114764999

> <s_psp_Prime_Energy_Force_Field>
S-OPLS

> <s_psp_Prime_Energy_Solvent_Model>
VSGB2.1

> <r_psp_Prime_Bond_Covalent>
152.894187523156

> <r_psp_Prime_Bond_SGB>
24738.3229772708

> <r_psp_Prime_Angle_Covalent>
732.837638785369

> <r_psp_Prime_Angle_SGB>
-10260.9686743668

> <r_psp_Prime_Torsion_Covalent>
725.03954796054

> <r_psp_Prime_NB14_LJ>
1825.70553451423

> <r_psp_Prime_NB14_Lipo>
0

> <r_psp_Prime_NB14_Elec>
10752.1642284428

> <r_psp_Prime_NB14_SGB>
-8483.58183633018

> <r_psp_Prime_NBShort_LJ>
-3393.01767680097

> <r_psp_Prime_NBShort_Lipo>
-917.76461263746

> <r_psp_Prime_NBShort_Elec>
-22777.3323894863

> <r_psp_Prime_NBShort_SGB>
10094.4645409932

> <r_psp_Prime_NBLong_LJ>
-183.351936810634

> <r_psp_Prime_NBLong_Lipo>
0

> <r_psp_Prime_NBLong_Elec>
534.086644111168

> <r_psp_Prime_NBLong_SGB>
-451.661082097145

> <r_psp_Prime_Self_SGB>
-17667.9156507778

> <r_psp_Prime_Hbond>
-219.286894199216

> <r_psp_Prime_Packing>
-31.0482215896392

> <r_psp_Prime_SelfCont>
-44.4978010049576

> <s_psp_Prime_MMGBSA_Input_Structure_Hash>
f6c69d28ad4327de007b5a901570cfad67022f9b7dcbb5209b0eae68

> <i_psp_number_heavy_atoms>
30

> <s_psp_MMGBSA_moved_residues>


> <r_psp_MMGBSA_dG_Bind>
-38.8452009378398

> <r_psp_MMGBSA_dG_Bind_Coulomb>
-25.5568460201284

> <r_psp_MMGBSA_dG_Bind_Covalent>
6.8495229163218

> <r_psp_MMGBSA_dG_Bind_Hbond>
-5.67008826076096

> <r_psp_MMGBSA_dG_Bind_Lipo>
-13.544312569545

> <r_psp_MMGBSA_dG_Bind_Packing>
-0.851226398865947

> <r_psp_MMGBSA_dG_Bind_SelfCont>
0

> <r_psp_MMGBSA_dG_Bind_Solv_GB>
36.6509264961437

> <r_psp_MMGBSA_dG_Bind_vdW>
-36.7231771010042

> <r_psp_Lig_Strain_Energy>
11.7108803196162

> <r_psp_Lig_Strain_Coulomb>
2.14164054434351

> <r_psp_Lig_Strain_Covalent>
6.84952291632188

> <r_psp_Lig_Strain_Hbond>
0

> <r_psp_Lig_Strain_Lipo>
0.322130073173445

> <r_psp_Lig_Strain_Packing>
0

> <r_psp_Lig_Strain_SelfCont>
0

> <r_psp_Lig_Strain_Solv_GB>
-0.0757057883997732

> <r_psp_Lig_Strain_vdW>
2.47329257417709

> <r_psp_Ligand_Energy>
-38.1855284476088

> <r_psp_Ligand_Coulomb>
-35.1151454516148

> <r_psp_Ligand_Covalent>
12.7580175647386

> <r_psp_Ligand_Hbond>
0

> <r_psp_Ligand_Lipo>
-2.70875973774416

> <r_psp_Ligand_Packing>
0

> <r_psp_Ligand_SelfCont>
0

> <r_psp_Ligand_Solv_GB>
-34.0535449038575

> <r_psp_Ligand_vdW>
20.9339040808691

> <r_psp_Complex_Energy>
-14874.9114764999

> <r_psp_Complex_Coulomb>
-11491.0815169324

> <r_psp_Complex_Covalent>
1610.77137426907

> <r_psp_Complex_Hbond>
-219.286894199216

> <r_psp_Complex_Lipo>
-917.76461263746

> <r_psp_Complex_Packing>
-31.0482215896392

> <r_psp_Complex_SelfCont>
-44.4978010049576

> <r_psp_Complex_Solv_GB>
-2031.33972530791

> <r_psp_Complex_vdW>
-1750.66407909737

> <r_psp_Receptor_Energy>
-14797.8807471144

> <r_psp_Receptor_Coulomb>
-11430.4095254606

> <r_psp_Receptor_Covalent>
1591.163833788

> <r_psp_Receptor_Hbond>
-213.616805938455

> <r_psp_Receptor_Lipo>
-901.511540330171

> <r_psp_Receptor_Packing>
-30.1969951907733

> <r_psp_Receptor_SelfCont>
-44.4978010049576

> <r_psp_Receptor_Solv_GB>
-2033.93710690019

> <r_psp_Receptor_vdW>
-1734.87480607724

> <r_psp_MMGBSA_dG_Bind(NS)>
-50.5560812574568

> <r_psp_MMGBSA_dG_Bind(NS)_Coulomb>
-27.6984865644718

> <r_psp_MMGBSA_dG_Bind(NS)_Covalent>
0

> <r_psp_MMGBSA_dG_Bind(NS)_Hbond>
-5.67008826076096

> <r_psp_MMGBSA_dG_Bind(NS)_Lipo>
-13.8664426427184

> <r_psp_MMGBSA_dG_Bind(NS)_Packing>
-0.851226398865947

> <r_psp_MMGBSA_dG_Bind(NS)_SelfCont>
0

> <r_psp_MMGBSA_dG_Bind(NS)_Solv_GB>
36.7266322845435

> <r_psp_MMGBSA_dG_Bind(NS)_vdW>
-39.1964696751813

> <r_psp_Rec_Strain_Energy>
0

> <r_psp_Rec_Strain_Coulomb>
0

> <r_psp_Rec_Strain_Covalent>
0

> <r_psp_Rec_Strain_Hbond>
0

> <r_psp_Rec_Strain_Lipo>
0

> <r_psp_Rec_Strain_Packing>
0

> <r_psp_Rec_Strain_SelfCont>
0

> <r_psp_Rec_Strain_Solv_GB>
0

> <r_psp_Rec_Strain_vdW>
0

> <r_psp_Prime_MMGBSA_ligand_efficiency>
-1.29484003126133

> <r_psp_Prime_MMGBSA_ligand_efficiency_sa>
-1.94226004689199

> <r_psp_Prime_MMGBSA_ligand_efficiency_ln>
-8.82605290544127

> <PUBCHEM_COMPOUND_CID>
25223631

> <PUBCHEM_CONFORMER_DIVERSEORDER>
2
212
11
195
79
73
221
16
225
205
142
101
47
82
137
33
34
128
198
21
149
115
130
113
78
136
12
193
167
84
61
150
81
121
203
169
204
39
213
60
65
179
98
171
151
72
53
54
97
197
191
190
127
147
117
100
58
35
88
4
89
8
202
229
206
208
74
158
156
139
99
94
224
3
59
138
123
95
143
20
154
129
102
145
132
168
159
152
85
55
48
56
36
125
174
15
163
68
105
222
75
103
13
96
30
107
80
215
141
32
187
223
27
106
6
199
62
86
134
52
110
10
140
91
164
170
41
44
214
67
22
29
9
200
118
76
227
148
38
57
217
116
183
166
87
181
92
161
71
220
157
24
31
46
5
64
133
114
42
126
194
104
77
1
66
186
207
216
23
196
162
165
172
25
188
155
18
111
112
219
218
175
51
69
135
49
144
160
146
210
180
28
17
176
178
26
201
45
173
70
153
37
185
124
209
182
40
90
50
119
83
43
228
109
7
189
63
14
120
122
19
184
93
131
211
108
226
177
192

> <PUBCHEM_MMFF94_PARTIAL_CHARGES>
37
1 -0.43
10 -0.8
11 0.3
12 0.28
14 0.14
16 -0.14
17 0.34
18 0.57
2 -0.68
21 0.09
22 0.28
23 0.63
24 0.27
25 -0.15
26 0.08
27 0.06
28 -0.15
29 -0.15
3 -0.68
30 0.57
38 0.37
4 -0.57
48 0.15
5 -0.57
51 0.15
52 0.15
53 0.4
54 0.36
55 0.36
56 0.4
57 0.45
58 0.37
59 0.37
6 -0.53
7 -0.57
8 -0.73
9 -0.99

> <PUBCHEM_PHARMACOPHORE_FEATURES>
15
1 10 donor
1 2 acceptor
1 2 donor
1 3 acceptor
1 3 donor
1 4 acceptor
1 5 acceptor
1 6 donor
1 7 acceptor
1 8 donor
1 9 cation
1 9 donor
3 15 19 20 hydrophobe
6 1 12 14 16 21 23 rings
6 16 21 25 26 28 29 rings

> <PUBCHEM_HEAVY_ATOM_COUNT>
30

> <PUBCHEM_ATOM_DEF_STEREO_COUNT>
5

> <PUBCHEM_ATOM_UDEF_STEREO_COUNT>
0

> <PUBCHEM_BOND_DEF_STEREO_COUNT>
0

> <PUBCHEM_BOND_UDEF_STEREO_COUNT>
0

> <PUBCHEM_ISOTOPIC_ATOM_COUNT>
0

> <PUBCHEM_COMPONENT_COUNT>
1

> <PUBCHEM_CACTVS_TAUTO_COUNT>
52

> <PUBCHEM_CONFORMER_ID>
0180E1CF00000002

> <PUBCHEM_MMFF94_ENERGY>
65.6142

> <PUBCHEM_FEATURE_SELFOVERLAP>
76.16

> <PUBCHEM_SHAPE_FINGERPRINT>
104564 63 17834954552828164474
1100329 8 18411140221414555346
11513181 2 17987812941352050007
11582403 64 16159559175639983381
12156800 1 17615445813506664430
12553582 1 18125728889675154932
12596599 1 17127328287023902663
12633257 1 18410575041792858779
12788726 201 17403461166258356660
13004483 165 17187851355203247425
13140716 1 18412545435734159266
13583140 156 17386547095282930120
13911987 19 18118696417667913454
14747281 78 17898857842349601325
15664445 248 17979642233968863669
17138139 8 17556546036996343743
1813 80 17914062993039456300
19930381 70 18121783829185921987
20645477 70 18335697217768069913
21796203 349 17906207008212957378
23559900 14 16877945992832554524
238 59 18047443696211128119
283562 15 17619343655689992360
3027735 51 17979911936540598762
35225 105 17841990280479171855
5309563 4 17977948977751839491
59755656 520 18196949970419581188
6443956 14 17978800003925561385

> <PUBCHEM_SHAPE_MULTIPOLES>
561.36
8.29
5.65
1.89
0.93
5.11
-0.46
-8.09
1.22
-3.76
-0.58
1.14
-0.14
-0.08

> <PUBCHEM_SHAPE_SELFOVERLAP>
1163.84

> <PUBCHEM_COORDINATE_TYPE>
2
5
10

> <PUBCHEM_SHAPE_VOLUME>
318.3

> <s_epik_Chemistry_Notes>
This compound has an ester and may undergo hydrolysis at high or low pH.

> <PUBCHEM_EFFECTIVE_ROTOR_COUNT>
10.6

> <PUBCHEM_CONFORMER_RMSD>
1

> <s_m_subgroup_title>
Top5_Leads->prime_mmgbsa_F13-out2

> <s_m_subgroupid>
Top5_Leads->prime_mmgbsa_F13-out21

> <b_m_subgroup_collapsed>
0

$$$$
