I7L-LD-1
                    3D
 Schrodinger Suite 2022-3.
 58 59  0  0  1  0            999 V2000
   19.2632   -2.5195   -3.3075 O   0  0  0  0  0  0
   18.9825   -6.9318   -7.3849 O   0  0  0  0  0  0
   19.8606   -6.8065   -4.1991 O   0  0  0  0  0  0
   20.7685   -4.8424   -6.5465 O   0  0  0  0  0  0
   18.7906   -3.0500   -1.2172 O   0  0  0  0  0  0
   16.8899   -1.5001    0.1128 O   0  0  0  0  0  0
   16.0992   -4.4327   -2.1074 O   0  5  0  0  0  0
   16.2838   -5.9039   -0.4734 O   0  0  0  0  0  0
   18.9363   -3.6545   -5.9804 N   0  0  0  0  0  0
   16.2179   -7.1052   -4.3902 N   0  3  0  0  0  0
   19.5543   -2.3540   -5.7317 C   0  0  2  0  0  0
   18.8673   -1.7619   -4.4664 C   0  0  2  0  0  0
   19.5143   -1.4418   -6.9877 C   0  0  0  0  0  0
   19.0651   -0.2525   -4.1860 C   0  0  0  0  0  0
   20.2798   -1.9486   -8.2467 C   0  0  0  0  0  0
   18.2202    0.0963   -2.9648 C   0  0  0  0  0  0
   18.6754   -6.0681   -6.2894 C   0  0  2  0  0  0
   19.5630   -4.7988   -6.2878 C   0  0  0  0  0  0
   18.0066   -0.8831   -1.9675 C   0  0  0  0  0  0
   19.4449   -2.8498   -9.1827 C   0  0  0  0  0  0
   20.8700   -0.7779   -9.0570 C   0  0  0  0  0  0
   18.6221   -6.7978   -4.8974 C   0  0  2  0  0  0
   18.6769   -2.2167   -2.1162 C   0  0  0  0  0  0
   17.4405   -6.2824   -3.9990 C   0  0  2  0  0  0
   17.6232    1.3499   -2.8306 C   0  0  0  0  0  0
   17.1739   -0.5872   -0.8721 C   0  0  0  0  0  0
   17.5545   -6.3432   -2.4417 C   0  0  0  0  0  0
   16.8240    1.6398   -1.7337 C   0  0  0  0  0  0
   16.5872    0.6684   -0.7675 C   0  0  0  0  0  0
   16.5539   -5.4916   -1.6239 C   0  0  0  0  0  0
   20.6088   -2.4856   -5.4724 H   0  0  0  0  0  0
   17.7943   -1.9038   -4.5928 H   0  0  0  0  0  0
   18.4760   -1.2301   -7.2277 H   0  0  0  0  0  0
   19.9495   -0.4821   -6.7111 H   0  0  0  0  0  0
   20.1165   -0.0328   -3.9975 H   0  0  0  0  0  0
   18.7439    0.3542   -5.0332 H   0  0  0  0  0  0
   21.1271   -2.5427   -7.8975 H   0  0  0  0  0  0
   17.9255   -3.6796   -5.8982 H   0  0  0  0  0  0
   17.6827   -5.7281   -6.5436 H   0  0  0  0  0  0
   18.7380   -2.2788   -9.7804 H   0  0  0  0  0  0
   20.0910   -3.3787   -9.8840 H   0  0  0  0  0  0
   18.8715   -3.6068   -8.6529 H   0  0  0  0  0  0
   20.0890   -0.1137   -9.4295 H   0  0  0  0  0  0
   21.5527   -0.1779   -8.4540 H   0  0  0  0  0  0
   21.4360   -1.1362   -9.9179 H   0  0  0  0  0  0
   18.4811   -7.8626   -5.1086 H   0  0  0  0  0  0
   17.1748   -5.2712   -4.3111 H   0  0  0  0  0  0
   17.7716    2.1092   -3.5864 H   0  0  0  0  0  0
   18.5529   -6.0489   -2.1179 H   0  0  0  0  0  0
   17.3841   -7.3758   -2.1470 H   0  0  0  0  0  0
   16.3875    2.6187   -1.6501 H   0  0  0  0  0  0
   15.9553    0.8829    0.0768 H   0  0  0  0  0  0
   19.7976   -7.4156   -7.1713 H   0  0  0  0  0  0
   16.3580   -8.0908   -4.2118 H   0  0  0  0  0  0
   15.3948   -6.7956   -3.8876 H   0  0  0  0  0  0
   19.8436   -7.6084   -3.6439 H   0  0  0  0  0  0
   17.3380   -2.3434   -0.0489 H   0  0  0  0  0  0
   16.0105   -6.9833   -5.3719 H   0  0  0  0  0  0
  1 12  1  0  0  0
  1 23  1  0  0  0
  2 17  1  0  0  0
  2 53  1  0  0  0
  3 22  1  0  0  0
  3 56  1  0  0  0
  4 18  2  0  0  0
  5 23  2  0  0  0
  6 26  1  0  0  0
  6 57  1  0  0  0
  7 30  1  0  0  0
  8 30  2  0  0  0
  9 11  1  0  0  0
  9 18  1  0  0  0
  9 38  1  0  0  0
 10 24  1  0  0  0
 10 54  1  0  0  0
 10 55  1  0  0  0
 10 58  1  0  0  0
 11 12  1  0  0  0
 11 13  1  0  0  0
 11 31  1  0  0  0
 12 14  1  0  0  0
 12 32  1  0  0  0
 13 15  1  0  0  0
 13 33  1  0  0  0
 13 34  1  0  0  0
 14 16  1  0  0  0
 14 35  1  0  0  0
 14 36  1  0  0  0
 15 20  1  0  0  0
 15 21  1  0  0  0
 15 37  1  0  0  0
 16 19  2  0  0  0
 16 25  1  0  0  0
 17 18  1  0  0  0
 17 22  1  0  0  0
 17 39  1  0  0  0
 19 23  1  0  0  0
 19 26  1  0  0  0
 20 40  1  0  0  0
 20 41  1  0  0  0
 20 42  1  0  0  0
 21 43  1  0  0  0
 21 44  1  0  0  0
 21 45  1  0  0  0
 22 24  1  0  0  0
 22 46  1  0  0  0
 24 27  1  0  0  0
 24 47  1  0  0  0
 25 28  2  0  0  0
 25 48  1  0  0  0
 26 29  2  0  0  0
 27 30  1  0  0  0
 27 49  1  0  0  0
 27 50  1  0  0  0
 28 29  1  0  0  0
 28 51  1  0  0  0
 29 52  1  0  0  0
M  CHG  2   7  -1  10   1
M  END
> <s_m_entry_id>
32

> <s_m_entry_name>
PubChem_NatProd.334

> <s_m_Source_Path>
E:\MonkeyPox\DockingAnalysis\Top5_Leads

> <s_m_Source_File>
Top5_Leads.mae

> <i_m_Source_File_Index>
32

> <s_m_job_name>
prime_mmgbsa_Viralcore

> <canvasUID>
334

> <i_lp_mmshare_version>
59121

> <i_f3d_flags>
0

> <s_epik_input>
W2NIXTFbY0hdW2NIXWMoW09IXSljKGMxMilDKD1PKU9bQ0BASF0oW0NIMl0yKVtDQEhdKFtDSDJdW0NIXShbQ0gzXSlbQ0gzXSlbTkhdQyg9TylbQ0BASF0oW09IXSlbQ0BASF0oW09IXSlbQ0BASF0oW05IMl0pW0NIMl1DKD1PKVtPSF0=

> <s_epik_cmdline>
J2VwaWtfcHl0aG9uJywgJy1waCcsICc3LjQnLCAnLXRuJywgJzgnLCAnLW1hJywgJzUwMCcsICctaW1hZScsICc8aW5maWxlLm1hZT4nLCAnLW9tYWUnLCAnPG91dGZpbGUubWFlPic=

> <r_epik_Ionization_Penalty>
  0.0140

> <r_epik_Ionization_Penalty_Charging>
  0.0093

> <r_epik_Ionization_Penalty_Neutral>
  0.0047

> <r_epik_State_Penalty>
  0.0092

> <r_epik_Charging_Adjusted_Penalty>
0.0185919

> <i_epik_Tot_Q>
0

> <i_epik_Tot_abs_Q>
2

> <s_lp_Force_Field>
S-OPLS

> <r_lp_Energy>
15.3802

> <b_lp_Chiralities_Consistent>
1

> <s_lp_Variant>
197216-1

> <i_xglide_ligandID>
319411

> <s_i_glide_gridfile>
glide-grid_Viralcore

> <i_i_glide_lignum>
48

> <i_i_glide_rotatable_bonds>
13

> <r_i_docking_score>
-11.2729279139049

> <r_i_glide_ligand_efficiency>
-0.37576426379683

> <r_i_glide_ligand_efficiency_sa>
-1.1675869337216

> <r_i_glide_ligand_efficiency_ln>
-2.5613320504266

> <r_i_glide_gscore>
-11.2821279139049

> <r_i_glide_lipo>
-0.656446499347766

> <r_i_glide_hbond>
-0.535516750780708

> <r_i_glide_metal>
0

> <r_i_glide_rewards>
-1.28612205190576

> <r_i_glide_evdw>
-29.2524127960205

> <r_i_glide_ecoul>
-30.2337837219238

> <r_i_glide_erotb>
0.88051112655546

> <r_i_glide_esite>
-0.187414004638893

> <r_i_glide_emodel>
-70.0507354736328

> <r_i_glide_energy>
-59.4861965179443

> <r_i_glide_einternal>
15.1104545593262

> <i_i_glide_confnum>
1

> <i_i_glide_posenum>
1

> <r_i_glide_eff_state_penalty>
0.0092

> <chiral flag>
1

> <ct enhanced stereo status>
0

> <Source Path>
/media/snu/HDD/MonkeyPox/LigandDataset

> <Source File>
PubChem NatProd.sdf

> <Source File Index>
334

> <r_glide_XP_GScore>
-11.2821279139049

> <r_glide_XP_HBond>
-3.62928188934455

> <i_glide_XP_PoseRank>
1

> <i_psp_model_num>
0

> <r_psp_Prime_Coulomb>
-12663.7215397306

> <r_psp_Prime_Covalent>
1789.6271079121

> <r_psp_Prime_vdW>
-1878.00568600856

> <r_psp_Prime_Lipo>
-1065.13374793398

> <r_psp_Prime_Solv_GB>
-3032.22587766426

> <r_psp_Prime_Energy>
-17189.1565619432

> <s_psp_Prime_Energy_Force_Field>
S-OPLS

> <s_psp_Prime_Energy_Solvent_Model>
VSGB2.1

> <r_psp_Prime_Bond_Covalent>
178.820524207158

> <r_psp_Prime_Bond_SGB>
28892.0401404585

> <r_psp_Prime_Angle_Covalent>
800.847268086537

> <r_psp_Prime_Angle_SGB>
-11632.8645947154

> <r_psp_Prime_Torsion_Covalent>
809.959315618408

> <r_psp_Prime_NB14_LJ>
2176.87293149154

> <r_psp_Prime_NB14_Lipo>
0

> <r_psp_Prime_NB14_Elec>
12830.2059305569

> <r_psp_Prime_NB14_SGB>
-10611.4240619318

> <r_psp_Prime_NBShort_LJ>
-3871.3637928179

> <r_psp_Prime_NBShort_Lipo>
-1065.13374793398

> <r_psp_Prime_NBShort_Elec>
-25879.8541890229

> <r_psp_Prime_NBShort_SGB>
11630.2436914409

> <r_psp_Prime_NBLong_LJ>
-183.514824682205

> <r_psp_Prime_NBLong_Lipo>
0

> <r_psp_Prime_NBLong_Elec>
385.926718735413

> <r_psp_Prime_NBLong_SGB>
-368.207262422633

> <r_psp_Prime_Self_SGB>
-20942.0137904938

> <r_psp_Prime_Hbond>
-243.547712994504

> <r_psp_Prime_Packing>
-38.7085286148896

> <r_psp_Prime_SelfCont>
-57.4405769085666

> <s_psp_Prime_MMGBSA_Input_Structure_Hash>
e3ba12c5853d88194aba5e2eb6c206bf9e443e6489a4868737c146f0

> <i_psp_number_heavy_atoms>
30

> <s_psp_MMGBSA_moved_residues>


> <r_psp_MMGBSA_dG_Bind>
-25.7272557306351

> <r_psp_MMGBSA_dG_Bind_Coulomb>
-13.0027190112196

> <r_psp_MMGBSA_dG_Bind_Covalent>
9.24363176446468

> <r_psp_MMGBSA_dG_Bind_Hbond>
-4.3014009698428

> <r_psp_MMGBSA_dG_Bind_Lipo>
-11.4913456503427

> <r_psp_MMGBSA_dG_Bind_Packing>
-1.27652354662436

> <r_psp_MMGBSA_dG_Bind_SelfCont>
0

> <r_psp_MMGBSA_dG_Bind_Solv_GB>
25.5093619912254

> <r_psp_MMGBSA_dG_Bind_vdW>
-30.4082603083098

> <r_psp_Lig_Strain_Energy>
13.3058082847027

> <r_psp_Lig_Strain_Coulomb>
3.29912002404808

> <r_psp_Lig_Strain_Covalent>
9.24363176446509

> <r_psp_Lig_Strain_Hbond>
0

> <r_psp_Lig_Strain_Lipo>
0.386599860922717

> <r_psp_Lig_Strain_Packing>
0

> <r_psp_Lig_Strain_SelfCont>
0

> <r_psp_Lig_Strain_Solv_GB>
-2.2168607133213

> <r_psp_Lig_Strain_vdW>
2.59331734858816

> <r_psp_Ligand_Energy>
-19.2881754231926

> <r_psp_Ligand_Coulomb>
-9.30506468608301

> <r_psp_Ligand_Covalent>
5.88412314412554

> <r_psp_Ligand_Hbond>
0

> <r_psp_Ligand_Lipo>
-3.37927503681194

> <r_psp_Ligand_Packing>
0

> <r_psp_Ligand_SelfCont>
0

> <r_psp_Ligand_Solv_GB>
-34.0173320903337

> <r_psp_Ligand_vdW>
21.5293732459105

> <r_psp_Complex_Energy>
-17189.1565619432

> <r_psp_Complex_Coulomb>
-12663.7215397306

> <r_psp_Complex_Covalent>
1789.6271079121

> <r_psp_Complex_Hbond>
-243.547712994504

> <r_psp_Complex_Lipo>
-1065.13374793398

> <r_psp_Complex_Packing>
-38.7085286148896

> <r_psp_Complex_SelfCont>
-57.4405769085666

> <r_psp_Complex_Solv_GB>
-3032.22587766426

> <r_psp_Complex_vdW>
-1878.00568600856

> <r_psp_Receptor_Energy>
-17144.1411307894

> <r_psp_Receptor_Coulomb>
-12641.4137560333

> <r_psp_Receptor_Covalent>
1774.49935300351

> <r_psp_Receptor_Hbond>
-239.246312024661

> <r_psp_Receptor_Lipo>
-1050.26312724683

> <r_psp_Receptor_Packing>
-37.4320050682653

> <r_psp_Receptor_SelfCont>
-57.4405769085666

> <r_psp_Receptor_Solv_GB>
-3023.71790756515

> <r_psp_Receptor_vdW>
-1869.12679894616

> <r_psp_MMGBSA_dG_Bind(NS)>
-39.033064015337

> <r_psp_MMGBSA_dG_Bind(NS)_Coulomb>
-16.3018390352681

> <r_psp_MMGBSA_dG_Bind(NS)_Covalent>
-2.27373675443232e-13

> <r_psp_MMGBSA_dG_Bind(NS)_Hbond>
-4.3014009698428

> <r_psp_MMGBSA_dG_Bind(NS)_Lipo>
-11.8779455112656

> <r_psp_MMGBSA_dG_Bind(NS)_Packing>
-1.27652354662436

> <r_psp_MMGBSA_dG_Bind(NS)_SelfCont>
0

> <r_psp_MMGBSA_dG_Bind(NS)_Solv_GB>
27.7262227045467

> <r_psp_MMGBSA_dG_Bind(NS)_vdW>
-33.001577656898

> <r_psp_Rec_Strain_Energy>
0

> <r_psp_Rec_Strain_Coulomb>
0

> <r_psp_Rec_Strain_Covalent>
0

> <r_psp_Rec_Strain_Hbond>
0

> <r_psp_Rec_Strain_Lipo>
0

> <r_psp_Rec_Strain_Packing>
0

> <r_psp_Rec_Strain_SelfCont>
0

> <r_psp_Rec_Strain_Solv_GB>
0

> <r_psp_Rec_Strain_vdW>
0

> <r_psp_Prime_MMGBSA_ligand_efficiency>
-0.857575191021169

> <r_psp_Prime_MMGBSA_ligand_efficiency_sa>
-1.28636278653175

> <r_psp_Prime_MMGBSA_ligand_efficiency_ln>
-5.84551282290342

> <PUBCHEM_COMPOUND_CID>
197216

> <PUBCHEM_CONFORMER_DIVERSEORDER>
1
72
23
48
116
42
126
3
91
107
24
36
135
94
139
123
150
19
149
69
12
143
50
30
61
44
14
141
79
100
122
142
134
130
43
127
59
74
89
31
104
82
98
77
46
57
108
34
80
103
84
124
15
58
67
109
138
60
129
101
49
106
128
45
85
62
11
56
65
76
38
27
92
112
113
133
8
137
53
54
78
33
121
118
146
51
105
81
64
148
96
40
39
90
117
99
73
132
9
21
13
29
22
41
95
71
97
87
26
131
2
114
37
52
115
152
88
144
75
6
28
102
20
111
119
93
32
7
147
86
110
120
83
47
35
10
16
136
63
140
4
125
151
25
18
145
68
70
17
66
5
55

> <PUBCHEM_MMFF94_PARTIAL_CHARGES>
36
1 -0.43
10 -0.99
11 0.3
12 0.28
14 0.14
16 -0.14
17 0.34
18 0.57
19 0.09
2 -0.68
22 0.28
23 0.63
24 0.27
25 -0.15
26 0.08
27 0.06
28 -0.15
29 -0.15
3 -0.68
30 0.66
38 0.37
4 -0.57
48 0.15
5 -0.57
51 0.15
52 0.15
53 0.4
54 0.36
55 0.36
56 0.4
57 0.45
58 0.5
6 -0.53
7 -0.65
8 -0.57
9 -0.73

> <PUBCHEM_PHARMACOPHORE_FEATURES>
16
1 10 cation
1 10 donor
1 2 acceptor
1 2 donor
1 3 acceptor
1 3 donor
1 4 acceptor
1 5 acceptor
1 6 donor
1 7 acceptor
1 8 acceptor
1 9 donor
3 15 20 21 hydrophobe
3 7 8 30 anion
6 1 12 14 16 19 23 rings
6 16 19 25 26 28 29 rings

> <PUBCHEM_HEAVY_ATOM_COUNT>
30

> <PUBCHEM_ATOM_DEF_STEREO_COUNT>
5

> <PUBCHEM_ATOM_UDEF_STEREO_COUNT>
0

> <PUBCHEM_BOND_DEF_STEREO_COUNT>
0

> <PUBCHEM_BOND_UDEF_STEREO_COUNT>
0

> <PUBCHEM_ISOTOPIC_ATOM_COUNT>
0

> <PUBCHEM_COMPONENT_COUNT>
1

> <PUBCHEM_CACTVS_TAUTO_COUNT>
26

> <PUBCHEM_MMFF94_ENERGY>
62.9132

> <PUBCHEM_FEATURE_SELFOVERLAP>
81.293

> <PUBCHEM_SHAPE_FINGERPRINT>
10006869 2 18341895127071156421
107951 10 18339939103636819813
1100329 8 18050853208633571910
11578080 2 12343770991355344156
12553582 1 17545896278553609679
12788726 201 18047204217298290204
13140716 1 17977108182153215203
133893 2 17680688355719480031
14178342 30 18408040714772515500
14251757 5 17755599474721612166
15927050 60 18268998583585122807
20600515 1 17685758521372760284
20642791 178 17689441477599685977
20905425 154 18411424994340963958
21421861 104 17406006054076085169
3027735 51 18411135853432587819
59755656 215 18410570704846178087

> <PUBCHEM_SHAPE_MULTIPOLES>
560.47
8.18
5.89
1.8
0.81
5.05
-0.14
-7.9
1.08
-3.9
-2.15
1
-0.13
-0.4

> <PUBCHEM_SHAPE_SELFOVERLAP>
1162.93

> <PUBCHEM_COORDINATE_TYPE>
2
5
10

> <PUBCHEM_SHAPE_VOLUME>
317.3

> <s_epik_Chemistry_Notes>
This compound has an ester and may undergo hydrolysis at high or low pH.

> <PUBCHEM_EFFECTIVE_ROTOR_COUNT>
10.6

> <PUBCHEM_CONFORMER_RMSD>
1

> <PUBCHEM_CONFORMER_ID>
-1951943679

> <s_m_subgroup_title>
Top5_Leads->prime_mmgbsa_Viralcore-out1

> <s_m_subgroupid>
Top5_Leads->prime_mmgbsa_Viralcore-out11

> <b_m_subgroup_collapsed>
0

$$$$
