I7L-LD-3
                    3D
 Schrodinger Suite 2022-3.
 90 93  0  0  1  0            999 V2000
   18.0499   -2.6416   -2.4920 O   0  0  0  0  0  0
   16.6057    2.0318   -2.2938 O   0  0  0  0  0  0
   17.2245   -0.2867   -3.8753 O   0  0  0  0  0  0
   18.3859   -3.8483   -0.6088 O   0  0  0  0  0  0
   20.9920   -2.0340   -0.4888 O   0  0  0  0  0  0
   20.6835    4.3921   -4.1063 O   0  0  0  0  0  0
   16.0604   -4.6245   -3.3497 O   0  0  0  0  0  0
   16.2581   -7.1701   -1.9829 O   0  0  0  0  0  0
   19.3833   -3.5467    2.0479 O   0  0  0  0  0  0
   17.2549   -7.1259    0.6614 O   0  0  0  0  0  0
   23.4028    3.7588   -4.4133 O   0  0  0  0  0  0
   24.9174    3.1469   -2.0671 O   0  0  0  0  0  0
   17.6936   -2.0222    2.2329 O   0  0  0  0  0  0
   20.1850   -3.0970    4.7625 O   0  0  0  0  0  0
   23.0674    2.5066    1.6841 O   0  0  0  0  0  0
   19.0126   -0.8980    6.0646 O   0  0  0  0  0  0
   16.3047   -0.0793    5.0411 O   0  0  0  0  0  0
   14.5873   -0.1470    2.6751 O   0  0  0  0  0  0
   19.3094    2.9311   -1.5954 N   0  0  1  0  0  0
   19.7860   -0.8903   -2.3193 C   0  0  1  0  0  0
   19.0510    1.6018   -2.1750 C   0  0  1  0  0  0
   18.3493   -1.3450   -1.9502 C   0  0  1  0  0  0
   20.0588    0.5177   -1.7338 C   0  0  0  0  0  0
   17.5974    1.1029   -1.8829 C   0  0  2  0  0  0
   17.3052   -0.3161   -2.4507 C   0  0  1  0  0  0
   20.6179    3.5754   -1.7693 C   0  0  2  0  0  0
   20.8724   -1.9062   -1.8956 C   0  0  0  0  0  0
   17.4511   -3.5482   -1.6097 C   0  0  2  0  0  0
   21.2968    3.5049   -3.1758 C   0  0  2  0  0  0
   17.0793   -4.8395   -2.3872 C   0  0  1  0  0  0
   16.6312   -5.9291   -1.3836 C   0  0  2  0  0  0
   17.9183   -4.7241    0.4199 C   0  0  1  0  0  0
   17.6480   -6.0934   -0.2377 C   0  0  1  0  0  0
   22.8167    3.7793   -3.1138 C   0  0  1  0  0  0
   21.5577    3.1691   -0.6381 C   0  0  0  0  0  0
   23.5384    2.8124   -2.1376 C   0  0  2  0  0  0
   22.8620    2.8200   -0.7576 C   0  0  0  0  0  0
   19.0172   -4.8129    1.5011 C   0  0  0  0  0  0
   18.4775   -2.9650    2.9294 C   0  0  2  0  0  0
   19.2979   -2.2543    4.0281 C   0  0  1  0  0  0
   23.7265    2.3724    0.4321 C   0  0  0  0  0  0
   18.3202   -1.5584    5.0031 C   0  0  2  0  0  0
   17.3427   -0.6418    4.2481 C   0  0  1  0  0  0
   16.7157   -1.3572    3.0468 C   0  0  1  0  0  0
   15.8835   -0.4067    2.1612 C   0  0  0  0  0  0
   19.8235   -0.8082   -3.4070 H   0  0  0  0  0  0
   19.1115    1.6865   -3.2621 H   0  0  0  0  0  0
   18.2872   -1.3748   -0.8581 H   0  0  0  0  0  0
   21.0754    0.8075   -1.9922 H   0  0  0  0  0  0
   20.0430    0.4511   -0.6524 H   0  0  0  0  0  0
   17.4942    1.0645   -0.7982 H   0  0  0  0  0  0
   16.3144   -0.6117   -2.1015 H   0  0  0  0  0  0
   18.6085    3.5442   -2.0208 H   0  0  0  0  0  0
   20.4338    4.6327   -1.5696 H   0  0  0  0  0  0
   20.6645   -2.8887   -2.3240 H   0  0  0  0  0  0
   21.8392   -1.6013   -2.3000 H   0  0  0  0  0  0
   16.5837   -3.0914   -1.1253 H   0  0  0  0  0  0
   21.1709    2.5046   -3.5899 H   0  0  0  0  0  0
   17.9725   -5.1680   -2.9219 H   0  0  0  0  0  0
   15.7030   -5.5873   -0.9230 H   0  0  0  0  0  0
   17.0047   -4.3350    0.8715 H   0  0  0  0  0  0
   18.5972   -6.3949   -0.6719 H   0  0  0  0  0  0
   22.9658    4.7968   -2.7435 H   0  0  0  0  0  0
   16.4504    1.8922   -3.2455 H   0  0  0  0  0  0
   17.2637   -1.1956   -4.2103 H   0  0  0  0  0  0
   21.1266    3.1663    0.3505 H   0  0  0  0  0  0
   23.4892    1.7967   -2.5350 H   0  0  0  0  0  0
   18.7268   -5.4997    2.2984 H   0  0  0  0  0  0
   19.9212   -5.2363    1.0618 H   0  0  0  0  0  0
   21.0341   -1.1649   -0.0736 H   0  0  0  0  0  0
   17.7853   -3.7004    3.3350 H   0  0  0  0  0  0
   19.7616    4.5373   -3.8205 H   0  0  0  0  0  0
   15.7316   -5.4730   -3.6905 H   0  0  0  0  0  0
   19.9219   -1.5108    3.5302 H   0  0  0  0  0  0
   24.0519    1.3429    0.2736 H   0  0  0  0  0  0
   24.6329    2.9791    0.4646 H   0  0  0  0  0  0
   17.7275   -2.3412    5.4669 H   0  0  0  0  0  0
   16.9511   -7.5227   -2.5589 H   0  0  0  0  0  0
   17.9520    0.1624    3.8717 H   0  0  0  0  0  0
   16.0353   -2.0676    3.4885 H   0  0  0  0  0  0
   16.9509   -7.8726    0.1205 H   0  0  0  0  0  0
   22.7219    4.1243   -4.9985 H   0  0  0  0  0  0
   25.2117    3.2433   -2.9842 H   0  0  0  0  0  0
   16.3755    0.5387    2.1135 H   0  0  0  0  0  0
   15.8328   -0.7615    1.1319 H   0  0  0  0  0  0
   20.2673   -2.7016    5.6409 H   0  0  0  0  0  0
   22.3741    1.8337    1.7617 H   0  0  0  0  0  0
   19.4631   -0.1233    5.7018 H   0  0  0  0  0  0
   15.9468   -0.7581    5.6367 H   0  0  0  0  0  0
   14.7112    0.1156    3.6052 H   0  0  0  0  0  0
  1 22  1  0  0  0
  1 28  1  0  0  0
  2 24  1  0  0  0
  2 64  1  0  0  0
  3 25  1  0  0  0
  3 65  1  0  0  0
  4 28  1  0  0  0
  4 32  1  0  0  0
  5 27  1  0  0  0
  5 70  1  0  0  0
  6 29  1  0  0  0
  6 72  1  0  0  0
  7 30  1  0  0  0
  7 73  1  0  0  0
  8 31  1  0  0  0
  8 78  1  0  0  0
  9 38  1  0  0  0
  9 39  1  0  0  0
 10 33  1  0  0  0
 10 81  1  0  0  0
 11 34  1  0  0  0
 11 82  1  0  0  0
 12 36  1  0  0  0
 12 83  1  0  0  0
 13 39  1  0  0  0
 13 44  1  0  0  0
 14 40  1  0  0  0
 14 86  1  0  0  0
 15 41  1  0  0  0
 15 87  1  0  0  0
 16 42  1  0  0  0
 16 88  1  0  0  0
 17 43  1  0  0  0
 17 89  1  0  0  0
 18 45  1  0  0  0
 18 90  1  0  0  0
 19 21  1  0  0  0
 19 26  1  0  0  0
 19 53  1  0  0  0
 20 22  1  0  0  0
 20 23  1  0  0  0
 20 27  1  0  0  0
 20 46  1  0  0  0
 21 23  1  0  0  0
 21 24  1  0  0  0
 21 47  1  0  0  0
 22 25  1  0  0  0
 22 48  1  0  0  0
 23 49  1  0  0  0
 23 50  1  0  0  0
 24 25  1  0  0  0
 24 51  1  0  0  0
 25 52  1  0  0  0
 26 29  1  0  0  0
 26 35  1  0  0  0
 26 54  1  0  0  0
 27 55  1  0  0  0
 27 56  1  0  0  0
 28 30  1  0  0  0
 28 57  1  0  0  0
 29 34  1  0  0  0
 29 58  1  0  0  0
 30 31  1  0  0  0
 30 59  1  0  0  0
 31 33  1  0  0  0
 31 60  1  0  0  0
 32 33  1  0  0  0
 32 38  1  0  0  0
 32 61  1  0  0  0
 33 62  1  0  0  0
 34 36  1  0  0  0
 34 63  1  0  0  0
 35 37  2  0  0  0
 35 66  1  0  0  0
 36 37  1  0  0  0
 36 67  1  0  0  0
 37 41  1  0  0  0
 38 68  1  0  0  0
 38 69  1  0  0  0
 39 40  1  0  0  0
 39 71  1  0  0  0
 40 42  1  0  0  0
 40 74  1  0  0  0
 41 75  1  0  0  0
 41 76  1  0  0  0
 42 43  1  0  0  0
 42 77  1  0  0  0
 43 44  1  0  0  0
 43 79  1  0  0  0
 44 45  1  0  0  0
 44 80  1  0  0  0
 45 84  1  0  0  0
 45 85  1  0  0  0
M  END
> <s_m_entry_id>
34

> <s_m_entry_name>
PubChem_NatProd.8359

> <s_m_Source_Path>
E:\MonkeyPox\DockingAnalysis\Top5_Leads

> <s_m_Source_File>
Top5_Leads.mae

> <i_m_Source_File_Index>
34

> <s_m_job_name>
prime_mmgbsa_Viralcore

> <canvasUID>
8359

> <i_lp_mmshare_version>
59121

> <i_f3d_flags>
0

> <s_epik_input>
W09IXVtDSDJdQyg9W0NIXTEpW0NASF0oW09IXSlbQ0BASF0oW09IXSlbQ0BIXShbT0hdKVtDQEhdMVtOSF1bQ0BASF0oW0NIMl0yKVtDQEBIXShbT0hdKVtDQEBIXShbT0hdKVtDQEhdKFtDQEBIXTJbQ0gyXVtPSF0pT1tDQEBIXTNPW0NAQEhdKFtDQEBIXShbT0hdKVtDQEhdKFtPSF0pW0NASF0zW09IXSlbQ0gyXU9bQ0BASF00T1tDQEhdKFtDSDJdW09IXSlbQ0BASF0oW09IXSlbQ0BIXShbT0hdKVtDQEhdNFtPSF0=

> <s_epik_cmdline>
J2VwaWtfcHl0aG9uJywgJy1waCcsICc3LjQnLCAnLXRuJywgJzgnLCAnLW1hJywgJzUwMCcsICctaW1hZScsICc8aW5maWxlLm1hZT4nLCAnLW9tYWUnLCAnPG91dGZpbGUubWFlPic=

> <r_epik_Ionization_Penalty>
  0.7675

> <r_epik_Ionization_Penalty_Charging>
  0.0000

> <r_epik_Ionization_Penalty_Neutral>
  0.7675

> <r_epik_State_Penalty>
  0.7674

> <r_epik_Charging_Adjusted_Penalty>
0.767444

> <i_epik_Tot_Q>
0

> <i_epik_Tot_abs_Q>
0

> <s_lp_Force_Field>
S-OPLS

> <r_lp_Energy>
55.1473

> <b_lp_Chiralities_Consistent>
1

> <s_lp_Variant>
139588922-2

> <i_xglide_ligandID>
322438

> <s_i_glide_gridfile>
glide-grid_Viralcore

> <i_i_glide_lignum>
1842

> <i_i_glide_rotatable_bonds>
24

> <r_i_docking_score>
-9.34036892604808

> <r_i_glide_ligand_efficiency>
-0.207563753912179

> <r_i_glide_ligand_efficiency_sa>
-0.738282125608257

> <r_i_glide_ligand_efficiency_ln>
-1.94321297697238

> <r_i_glide_gscore>
-10.1077689260481

> <r_i_glide_lipo>
-0.687500725571947

> <r_i_glide_hbond>
-0.48

> <r_i_glide_metal>
0

> <r_i_glide_rewards>
-0.0370608035797061

> <r_i_glide_evdw>
-34.5130424499512

> <r_i_glide_ecoul>
-31.4136657714844

> <r_i_glide_erotb>
0.332844464842105

> <r_i_glide_esite>
0

> <r_i_glide_emodel>
-89.2790298461914

> <r_i_glide_energy>
-65.9267082214355

> <r_i_glide_einternal>
13.4010200500488

> <i_i_glide_confnum>
1

> <i_i_glide_posenum>
1

> <r_i_glide_eff_state_penalty>
0.7674

> <chiral flag>
1

> <ct enhanced stereo status>
0

> <Source Path>
/media/snu/HDD/MonkeyPox/LigandDataset

> <Source File>
PubChem NatProd.sdf

> <Source File Index>
8359

> <r_glide_XP_GScore>
-10.1077689260481

> <r_glide_XP_HBond>
-6.15428383702497

> <i_glide_XP_PoseRank>
1

> <i_psp_model_num>
0

> <r_psp_Prime_Coulomb>
-12481.8660745692

> <r_psp_Prime_Covalent>
1802.62559834061

> <r_psp_Prime_vdW>
-1897.70255528269

> <r_psp_Prime_Lipo>
-1074.76043857825

> <r_psp_Prime_Solv_GB>
-2984.15169225228

> <r_psp_Prime_Energy>
-16977.1815250857

> <s_psp_Prime_Energy_Force_Field>
S-OPLS

> <s_psp_Prime_Energy_Solvent_Model>
VSGB2.1

> <r_psp_Prime_Bond_Covalent>
180.676275152601

> <r_psp_Prime_Bond_SGB>
29157.7940780768

> <r_psp_Prime_Angle_Covalent>
810.234996384806

> <r_psp_Prime_Angle_SGB>
-11432.1643476618

> <r_psp_Prime_Torsion_Covalent>
811.714326803206

> <r_psp_Prime_NB14_LJ>
2176.54255195141

> <r_psp_Prime_NB14_Lipo>
0

> <r_psp_Prime_NB14_Elec>
13389.5273601859

> <r_psp_Prime_NB14_SGB>
-10960.6532646643

> <r_psp_Prime_NBShort_LJ>
-3891.08897631016

> <r_psp_Prime_NBShort_Lipo>
-1074.76043857825

> <r_psp_Prime_NBShort_Elec>
-26258.5649070626

> <r_psp_Prime_NBShort_SGB>
11840.4805038602

> <r_psp_Prime_NBLong_LJ>
-183.156130923941

> <r_psp_Prime_NBLong_Lipo>
0

> <r_psp_Prime_NBLong_Elec>
387.171472307506

> <r_psp_Prime_NBLong_SGB>
-373.505335823233

> <r_psp_Prime_Self_SGB>
-21216.1033260399

> <r_psp_Prime_Hbond>
-246.453780767045

> <r_psp_Prime_Packing>
-37.4320050682653

> <r_psp_Prime_SelfCont>
-57.4405769085666

> <s_psp_Prime_MMGBSA_Input_Structure_Hash>
513d76d64b0a2010b727e1e93ed453ed0144dc2d3da04baf80feae0f

> <i_psp_number_heavy_atoms>
45

> <s_psp_MMGBSA_moved_residues>


> <r_psp_MMGBSA_dG_Bind>
-30.8982012904962

> <r_psp_MMGBSA_dG_Bind_Coulomb>
-27.2368298958645

> <r_psp_MMGBSA_dG_Bind_Covalent>
4.99902099741371

> <r_psp_MMGBSA_dG_Bind_Hbond>
-7.20746874238461

> <r_psp_MMGBSA_dG_Bind_Lipo>
-14.3876142038216

> <r_psp_MMGBSA_dG_Bind_Packing>
0

> <r_psp_MMGBSA_dG_Bind_SelfCont>
0

> <r_psp_MMGBSA_dG_Bind_Solv_GB>
58.3268049573735

> <r_psp_MMGBSA_dG_Bind_vdW>
-45.3921144032172

> <r_psp_Lig_Strain_Energy>
31.8342823569127

> <r_psp_Lig_Strain_Coulomb>
31.5289215463926

> <r_psp_Lig_Strain_Covalent>
4.9990209974142

> <r_psp_Lig_Strain_Hbond>
0

> <r_psp_Lig_Strain_Lipo>
3.21932657574641

> <r_psp_Lig_Strain_Packing>
0

> <r_psp_Lig_Strain_SelfCont>
0

> <r_psp_Lig_Strain_Solv_GB>
-9.03821838768931

> <r_psp_Lig_Strain_vdW>
1.12523162504887

> <r_psp_Ligand_Energy>
197.857806994174

> <r_psp_Ligand_Coulomb>
186.78451135991

> <r_psp_Ligand_Covalent>
23.127224339687

> <r_psp_Ligand_Hbond>
0

> <r_psp_Ligand_Lipo>
-10.1096971276055

> <r_psp_Ligand_Packing>
0

> <r_psp_Ligand_SelfCont>
0

> <r_psp_Ligand_Solv_GB>
-18.7605896445012

> <r_psp_Ligand_vdW>
16.8163580666836

> <r_psp_Complex_Energy>
-16977.1815250857

> <r_psp_Complex_Coulomb>
-12481.8660745692

> <r_psp_Complex_Covalent>
1802.62559834061

> <r_psp_Complex_Hbond>
-246.453780767045

> <r_psp_Complex_Lipo>
-1074.76043857825

> <r_psp_Complex_Packing>
-37.4320050682653

> <r_psp_Complex_SelfCont>
-57.4405769085666

> <r_psp_Complex_Solv_GB>
-2984.15169225228

> <r_psp_Complex_vdW>
-1897.70255528269

> <r_psp_Receptor_Energy>
-17144.1411307894

> <r_psp_Receptor_Coulomb>
-12641.4137560333

> <r_psp_Receptor_Covalent>
1774.49935300351

> <r_psp_Receptor_Hbond>
-239.246312024661

> <r_psp_Receptor_Lipo>
-1050.26312724683

> <r_psp_Receptor_Packing>
-37.4320050682653

> <r_psp_Receptor_SelfCont>
-57.4405769085666

> <r_psp_Receptor_Solv_GB>
-3023.71790756515

> <r_psp_Receptor_vdW>
-1869.12679894616

> <r_psp_MMGBSA_dG_Bind(NS)>
-62.7324836474072

> <r_psp_MMGBSA_dG_Bind(NS)_Coulomb>
-58.7657514422572

> <r_psp_MMGBSA_dG_Bind(NS)_Covalent>
-4.54747350886464e-13

> <r_psp_MMGBSA_dG_Bind(NS)_Hbond>
-7.20746874238461

> <r_psp_MMGBSA_dG_Bind(NS)_Lipo>
-17.606940779568

> <r_psp_MMGBSA_dG_Bind(NS)_Packing>
0

> <r_psp_MMGBSA_dG_Bind(NS)_SelfCont>
0

> <r_psp_MMGBSA_dG_Bind(NS)_Solv_GB>
67.365023345063

> <r_psp_MMGBSA_dG_Bind(NS)_vdW>
-46.517346028266

> <r_psp_Rec_Strain_Energy>
0

> <r_psp_Rec_Strain_Coulomb>
0

> <r_psp_Rec_Strain_Covalent>
0

> <r_psp_Rec_Strain_Hbond>
0

> <r_psp_Rec_Strain_Lipo>
0

> <r_psp_Rec_Strain_Packing>
0

> <r_psp_Rec_Strain_SelfCont>
0

> <r_psp_Rec_Strain_Solv_GB>
0

> <r_psp_Rec_Strain_vdW>
0

> <r_psp_Prime_MMGBSA_ligand_efficiency>
-0.68662669534436

> <r_psp_Prime_MMGBSA_ligand_efficiency_sa>
-1.02994004301654

> <r_psp_Prime_MMGBSA_ligand_efficiency_ln>
-6.42820280314141

> <PUBCHEM_COMPOUND_CID>
139588922

> <PUBCHEM_CONFORMER_RMSD>
1.4

> <PUBCHEM_CONFORMER_DIVERSEORDER>
1
23
20
22
27
18
26
19
10
24
17
5
2
9
14
16
15
8
7
11
12
21
13
4
25
6
28
3

> <PUBCHEM_MMFF94_PARTIAL_CHARGES>
59
1 -0.56
10 -0.68
11 -0.68
12 -0.68
13 -0.56
14 -0.68
15 -0.68
16 -0.68
17 -0.68
18 -0.68
19 -0.9
2 -0.68
21 0.27
22 0.28
24 0.28
25 0.28
26 0.41
27 0.28
28 0.56
29 0.28
3 -0.68
30 0.28
31 0.28
32 0.28
33 0.28
34 0.28
35 -0.29
36 0.42
37 -0.28
38 0.28
39 0.56
4 -0.56
40 0.28
41 0.42
42 0.28
43 0.28
44 0.28
45 0.28
5 -0.68
53 0.36
6 -0.68
64 0.4
65 0.4
66 0.15
7 -0.68
70 0.4
72 0.4
73 0.4
78 0.4
8 -0.68
81 0.4
82 0.4
83 0.4
86 0.4
87 0.4
88 0.4
89 0.4
9 -0.56
90 0.4

> <PUBCHEM_PHARMACOPHORE_FEATURES>
38
1 1 acceptor
1 10 acceptor
1 10 donor
1 11 acceptor
1 11 donor
1 12 acceptor
1 12 donor
1 13 acceptor
1 14 acceptor
1 14 donor
1 15 acceptor
1 15 donor
1 16 acceptor
1 16 donor
1 17 acceptor
1 17 donor
1 18 acceptor
1 18 donor
1 19 cation
1 19 donor
1 2 acceptor
1 2 donor
1 3 acceptor
1 3 donor
1 4 acceptor
1 5 acceptor
1 5 donor
1 6 acceptor
1 6 donor
1 7 acceptor
1 7 donor
1 8 acceptor
1 8 donor
1 9 acceptor
6 13 39 40 42 43 44 rings
6 20 21 22 23 24 25 rings
6 26 29 34 35 36 37 rings
6 4 28 30 31 32 33 rings

> <PUBCHEM_HEAVY_ATOM_COUNT>
45

> <PUBCHEM_ATOM_DEF_STEREO_COUNT>
19

> <PUBCHEM_ATOM_UDEF_STEREO_COUNT>
0

> <PUBCHEM_BOND_DEF_STEREO_COUNT>
0

> <PUBCHEM_BOND_UDEF_STEREO_COUNT>
0

> <PUBCHEM_ISOTOPIC_ATOM_COUNT>
0

> <PUBCHEM_COMPONENT_COUNT>
1

> <PUBCHEM_CACTVS_TAUTO_COUNT>
-1

> <PUBCHEM_CONFORMER_ID>
0851F53A00000001

> <PUBCHEM_MMFF94_ENERGY>
114.898

> <PUBCHEM_FEATURE_SELFOVERLAP>
193.074

> <PUBCHEM_SHAPE_FINGERPRINT>
10319688 140 18338797931090048548
10622 236 18272651238131719776
11409948 41 18125987498932200567
117089 54 18411141328861704006
12124843 1 17896329004687559886
12202916 173 18042394915438119696
12977781 61 17825967075900256563
13560911 43 18410292480775257482
14068700 675 18202285754082186218
14340393 91 18409163278075214833
15183329 4 17559406953773622329
15351339 4 17968939678785898042
15467298 65 17840291543737049687
15538507 32 18410294739506412718
16067689 302 18191871348023499651
19301676 85 18335989696361998171
19311894 1 18121212078439212696
19315092 285 17918277546026757680
19841028 212 18343301470456086266
20775438 99 18193261121445050978
208703 8 18343022147463771478
21133410 171 17462536457446311498
21781055 127 17346329172880919187
23569914 152 17906696295561833557
255183 451 18413111645784328380
3534868 343 18264215879318991900
44344687 77 18259994794788051987
57527295 17 17896320221173075184
70251023 43 18410292493670579248
9831232 110 18408880758919953279

> <PUBCHEM_SHAPE_MULTIPOLES>
815.45
26.18
7.33
1.63
24.05
4.07
-0.66
-28.88
11.59
-15.18
0.36
0.46
-0.67
0.28

> <PUBCHEM_SHAPE_SELFOVERLAP>
1689.5

> <PUBCHEM_COORDINATE_TYPE>
2
5
10

> <PUBCHEM_SHAPE_VOLUME>
456.4

> <s_epik_Chemistry_Notes>
This compound contains an acetal/aminal-like group ( X-CH(R)-Y where X, Y are N, S, or O) that may be acid/base labile, releasing an aldehyde.

> <PUBCHEM_EFFECTIVE_ROTOR_COUNT>
14.4

> <s_m_subgroup_title>
Top5_Leads->prime_mmgbsa_Viralcore-out1

> <s_m_subgroupid>
Top5_Leads->prime_mmgbsa_Viralcore-out11

> <b_m_subgroup_collapsed>
0

$$$$
